<?xml version="1.0" encoding="UTF-8"?>
<!-- generated on 2021-09-26 18:40:30.120546 by $Id$ v1_10_0+0000-83496a5972
  options: -n csusb.net.xml -e 1000 -o csusb.trips.xml
-->
<routes xmlns:xsi="http://www.w3.org/2001/XMLSchema-instance" xsi:noNamespaceSchemaLocation="http://sumo.dlr.de/xsd/routes_file.xsd">
    <trip id="0" depart="0.00" from="43784980#11" to="-164423267#16"/>
    <trip id="1" depart="1.00" from="-7274282#2" to="-7214396#2"/>
    <trip id="2" depart="2.00" from="7198587#1" to="45101504#1"/>
    <trip id="3" depart="3.00" from="7410866#1" to="-305454129#5"/>
    <trip id="4" depart="4.00" from="-7464964#0" to="-164423269#10"/>
    <trip id="5" depart="5.00" from="-7198587#2" to="164423269#5"/>
    <trip id="6" depart="6.00" from="-164423267#2" to="-62233517#1"/>
    <trip id="7" depart="7.00" from="43853619#2" to="305454116#14"/>
    <trip id="8" depart="8.00" from="-7206344#0" to="305454870#9"/>
    <trip id="9" depart="9.00" from="7312317#1" to="-164327744#2"/>
    <trip id="10" depart="10.00" from="7301186#0" to="611356541#6"/>
    <trip id="11" depart="11.00" from="-7367387#0" to="-45101458#1"/>
    <trip id="12" depart="12.00" from="7501551#3" to="-7380308#0"/>
    <trip id="13" depart="13.00" from="-305454133#1" to="-305454133#7"/>
    <trip id="14" depart="14.00" from="7356163#0" to="43052069#11"/>
    <trip id="15" depart="15.00" from="7301191#2" to="7214385#0"/>
    <trip id="16" depart="16.00" from="185937924#13" to="7520841#11"/>
    <trip id="17" depart="17.00" from="-7409247#0" to="305454118#9"/>
    <trip id="18" depart="18.00" from="7339865" to="43783240#3"/>
    <trip id="19" depart="19.00" from="7385396#3" to="305454133#9"/>
    <trip id="20" depart="20.00" from="611356512" to="-164423321#3"/>
    <trip id="21" depart="21.00" from="-7219683#0" to="-7312944#0"/>
    <trip id="22" depart="22.00" from="-305454122#2" to="-7232192#13"/>
    <trip id="23" depart="23.00" from="-305454136#2" to="-7281531#14"/>
    <trip id="24" depart="24.00" from="43783257#2" to="-7407972#2"/>
    <trip id="25" depart="25.00" from="-7402022#1" to="-7193793"/>
    <trip id="26" depart="26.00" from="-7261506#1" to="7471244#1"/>
    <trip id="27" depart="27.00" from="43853468" to="43052069#3"/>
    <trip id="28" depart="28.00" from="-45101489#14" to="7212468#1"/>
    <trip id="29" depart="29.00" from="-45101488#13" to="-7427575#1"/>
    <trip id="30" depart="30.00" from="856234945#22" to="43853627#0"/>
    <trip id="31" depart="31.00" from="305454116#4" to="474803144#8"/>
    <trip id="32" depart="32.00" from="7352278#0" to="7264218#0"/>
    <trip id="33" depart="33.00" from="-7219683#3" to="-164423269#2"/>
    <trip id="34" depart="34.00" from="-7334654" to="-7274282#4"/>
    <trip id="35" depart="35.00" from="-690192053" to="7483170#0"/>
    <trip id="36" depart="36.00" from="7392770#2" to="-7343970#0"/>
    <trip id="37" depart="37.00" from="43853694#2" to="-7438579#8"/>
    <trip id="38" depart="38.00" from="7438579#5" to="-856234945#18"/>
    <trip id="39" depart="39.00" from="-7256121#2" to="-7245405#1"/>
    <trip id="40" depart="40.00" from="305454118#4" to="-7266186#0"/>
    <trip id="41" depart="41.00" from="305454133#18" to="7427575#4"/>
    <trip id="42" depart="42.00" from="-7438579#13" to="-7211536#1"/>
    <trip id="43" depart="43.00" from="936668811#3" to="164423273#1"/>
    <trip id="44" depart="44.00" from="-305454130#3" to="-164423321#7"/>
    <trip id="45" depart="45.00" from="-305454870#4" to="43784950#1"/>
    <trip id="46" depart="46.00" from="7274939#2" to="-7483170#1"/>
    <trip id="47" depart="47.00" from="-305454115#10" to="-7430963#2"/>
    <trip id="48" depart="48.00" from="912727603#5" to="185937927#2"/>
    <trip id="49" depart="49.00" from="751820142#7" to="7385407#1"/>
    <trip id="50" depart="50.00" from="-164327746#4" to="7195605"/>
    <trip id="51" depart="51.00" from="45101489#13" to="305454115#1"/>
    <trip id="52" depart="52.00" from="-7261506#0" to="43853628#2"/>
    <trip id="53" depart="53.00" from="-305454870#9" to="-7501551#4"/>
    <trip id="54" depart="54.00" from="-7504123#2" to="7501551#0"/>
    <trip id="55" depart="55.00" from="7392770#1" to="-7266186#1"/>
    <trip id="56" depart="56.00" from="164327767" to="-474803144#1"/>
    <trip id="57" depart="57.00" from="7438579#18" to="7389380#9"/>
    <trip id="58" depart="58.00" from="-7312944#1" to="43853619#2"/>
    <trip id="59" depart="59.00" from="425424824#1" to="-45101456#0"/>
    <trip id="60" depart="60.00" from="7235610#2" to="305454115#3"/>
    <trip id="61" depart="61.00" from="7250410#2" to="185937928#1"/>
    <trip id="62" depart="62.00" from="-144183752#1" to="-7355687#0"/>
    <trip id="63" depart="63.00" from="-164327763#2" to="7464100#1"/>
    <trip id="64" depart="64.00" from="7399717" to="7342056#2"/>
    <trip id="65" depart="65.00" from="-7318572#1" to="-245008167#0"/>
    <trip id="66" depart="66.00" from="7395088#2" to="7491070#0"/>
    <trip id="67" depart="67.00" from="-305454128#1" to="164327756"/>
    <trip id="68" depart="68.00" from="-305454116#1" to="7247822#1"/>
    <trip id="69" depart="69.00" from="7241194#2" to="-43783247#2"/>
    <trip id="70" depart="70.00" from="-856234945#5" to="305454118#4"/>
    <trip id="71" depart="71.00" from="-7256121#2" to="7392770#0"/>
    <trip id="72" depart="72.00" from="-7464964#2" to="-7195502#0"/>
    <trip id="73" depart="73.00" from="185937924#8" to="7214385#1"/>
    <trip id="74" depart="74.00" from="-62233517#2" to="-7340873#1"/>
    <trip id="75" depart="75.00" from="912727603#3" to="45101451#9"/>
    <trip id="76" depart="76.00" from="-7491070#1" to="164423321#2"/>
    <trip id="77" depart="77.00" from="-43052069#12" to="-7218200#0"/>
    <trip id="78" depart="78.00" from="-7365520" to="305454870#7"/>
    <trip id="79" depart="79.00" from="-7219683#5" to="-7212468#1"/>
    <trip id="80" depart="80.00" from="-305454116#13" to="43784980#3"/>
    <trip id="81" depart="81.00" from="-7219683#2" to="7438579#11"/>
    <trip id="82" depart="82.00" from="7385066#2" to="-305454116#6"/>
    <trip id="83" depart="83.00" from="-7232192#5" to="45101489#12"/>
    <trip id="84" depart="84.00" from="-7195605" to="-43784980#3"/>
    <trip id="85" depart="85.00" from="7464964#7" to="305454133#11"/>
    <trip id="86" depart="86.00" from="-856234945#18" to="7274282#8"/>
    <trip id="87" depart="87.00" from="7305016#0" to="-611356541#1"/>
    <trip id="88" depart="88.00" from="-305454133#2" to="-7495892#7"/>
    <trip id="89" depart="89.00" from="-7464964#3" to="-912727603#4"/>
    <trip id="90" depart="90.00" from="681124605" to="45101489#6"/>
    <trip id="91" depart="91.00" from="856234945#0" to="-305454136#1"/>
    <trip id="92" depart="92.00" from="-7438579#2" to="-7385396#1"/>
    <trip id="93" depart="93.00" from="7385396#3" to="-7247285"/>
    <trip id="94" depart="94.00" from="-611356517#2" to="-7520841#10"/>
    <trip id="95" depart="95.00" from="-7464100#1" to="-7281531#15"/>
    <trip id="96" depart="96.00" from="-7245393#1" to="7458814#6"/>
    <trip id="97" depart="97.00" from="-7495892#7" to="7385407#3"/>
    <trip id="98" depart="98.00" from="305454115#2" to="-185937924#13"/>
    <trip id="99" depart="99.00" from="936668811#7" to="7349036#1"/>
    <trip id="100" depart="100.00" from="751820142#2" to="7462588#0"/>
    <trip id="101" depart="101.00" from="7359997#1" to="-45101488#9"/>
    <trip id="102" depart="102.00" from="144183753#7" to="-7196002#3"/>
    <trip id="103" depart="103.00" from="-7438579#17" to="-245008167#1"/>
    <trip id="104" depart="104.00" from="-7409247#1" to="856234945#10"/>
    <trip id="105" depart="105.00" from="-7256121#2" to="7274282#7"/>
    <trip id="106" depart="106.00" from="-7504646" to="-7484919#1"/>
    <trip id="107" depart="107.00" from="7501551#3" to="912727603#4"/>
    <trip id="108" depart="108.00" from="305454116#13" to="7193793"/>
    <trip id="109" depart="109.00" from="-45101455#3" to="-7316755#2"/>
    <trip id="110" depart="110.00" from="751820142#1" to="305454136#4"/>
    <trip id="111" depart="111.00" from="185937928#1" to="7234269#0"/>
    <trip id="112" depart="112.00" from="-185937927#3" to="305454870#13"/>
    <trip id="113" depart="113.00" from="164423260" to="7371709#1"/>
    <trip id="114" depart="114.00" from="-45101458#0" to="7503345#4"/>
    <trip id="115" depart="115.00" from="-305454122#3" to="-476746205"/>
    <trip id="116" depart="116.00" from="305454870#12" to="45101501#0"/>
    <trip id="117" depart="117.00" from="-7232192#10" to="-43052069#16"/>
    <trip id="118" depart="118.00" from="7409247#1" to="-7245405#0"/>
    <trip id="119" depart="119.00" from="305454870#11" to="43783244#0"/>
    <trip id="120" depart="120.00" from="-7462588#1" to="305454870#12"/>
    <trip id="121" depart="121.00" from="164423273#2" to="7468637#3"/>
    <trip id="122" depart="122.00" from="-642427460" to="681124605"/>
    <trip id="123" depart="123.00" from="-7232192#6" to="-7439412#0"/>
    <trip id="124" depart="124.00" from="45101487#5" to="-7319596"/>
    <trip id="125" depart="125.00" from="-7336680#0" to="7235610#3"/>
    <trip id="126" depart="126.00" from="-305454116#5" to="-856234945#16"/>
    <trip id="127" depart="127.00" from="936668811#5" to="912727603#5"/>
    <trip id="128" depart="128.00" from="-305454116#7" to="-7196002#1"/>
    <trip id="129" depart="129.00" from="-7256121#2" to="7468637#0"/>
    <trip id="130" depart="130.00" from="7401537#2" to="7402022#2"/>
    <trip id="131" depart="131.00" from="-7402022#0" to="-45101458#6"/>
    <trip id="132" depart="132.00" from="7342034" to="611356855#0"/>
    <trip id="133" depart="133.00" from="425424824#5" to="856234945#15"/>
    <trip id="134" depart="134.00" from="43853651#3" to="-164327745#2"/>
    <trip id="135" depart="135.00" from="7316755#1" to="-7318572#2"/>
    <trip id="136" depart="136.00" from="45101455#2" to="7477110#1"/>
    <trip id="137" depart="137.00" from="-43784980#2" to="-354884727"/>
    <trip id="138" depart="138.00" from="-305454870#14" to="305454122#1"/>
    <trip id="139" depart="139.00" from="-7267207#0" to="43052069#14"/>
    <trip id="140" depart="140.00" from="62233517#2" to="-647773960#3"/>
    <trip id="141" depart="141.00" from="43783250" to="-7266186#3"/>
    <trip id="142" depart="142.00" from="164327745#1" to="7438579#11"/>
    <trip id="143" depart="143.00" from="7355687#1" to="-305454133#13"/>
    <trip id="144" depart="144.00" from="-7464964#3" to="-7281531#11"/>
    <trip id="145" depart="145.00" from="-144183753#4" to="7256121#1"/>
    <trip id="146" depart="146.00" from="43783258#4" to="-7263607#0"/>
    <trip id="147" depart="147.00" from="7214385#1" to="305454118#8"/>
    <trip id="148" depart="148.00" from="-7468637#4" to="-164327746#2"/>
    <trip id="149" depart="149.00" from="-305454118#1" to="7402519#4"/>
    <trip id="150" depart="150.00" from="7430963#5" to="305454116#4"/>
    <trip id="151" depart="151.00" from="7342056#1-AddedOffRampEdge" to="305454870#1"/>
    <trip id="152" depart="152.00" from="-45017131" to="-43783247#0"/>
    <trip id="153" depart="153.00" from="-7319656#0" to="7430963#2"/>
    <trip id="154" depart="154.00" from="7281531#1" to="7385407#1"/>
    <trip id="155" depart="155.00" from="7416276#3" to="-7193797#0"/>
    <trip id="156" depart="156.00" from="-7245393#1" to="-305454870#1"/>
    <trip id="157" depart="157.00" from="725807842#0" to="7407972#1"/>
    <trip id="158" depart="158.00" from="-7444816#0" to="43783247#0"/>
    <trip id="159" depart="159.00" from="-45101455#3" to="7464964#1"/>
    <trip id="160" depart="160.00" from="7385407#5" to="7521530#1"/>
    <trip id="161" depart="161.00" from="7312944#10" to="7402028#0"/>
    <trip id="162" depart="162.00" from="-164423267#14" to="7220548"/>
    <trip id="163" depart="163.00" from="-7352278#1" to="7464964#3"/>
    <trip id="164" depart="164.00" from="7281531#7" to="7387551#1"/>
    <trip id="165" depart="165.00" from="7312944#10" to="-7274282#1"/>
    <trip id="166" depart="166.00" from="7274282#2" to="-305454870#6"/>
    <trip id="167" depart="167.00" from="7389380#6" to="7385396#0"/>
    <trip id="168" depart="168.00" from="-7212468#0" to="7320918#0"/>
    <trip id="169" depart="169.00" from="-751820142#8" to="-7332241#0"/>
    <trip id="170" depart="170.00" from="7275164#1" to="-7219683#5"/>
    <trip id="171" depart="171.00" from="-164423267#11" to="-611356553"/>
    <trip id="172" depart="172.00" from="-7349036#2" to="7387551#2"/>
    <trip id="173" depart="173.00" from="7511541" to="-7281531#16"/>
    <trip id="174" depart="174.00" from="43784980#15" to="-7447182#3"/>
    <trip id="175" depart="175.00" from="819254253" to="305454115#0"/>
    <trip id="176" depart="176.00" from="7471244#0" to="-354884727"/>
    <trip id="177" depart="177.00" from="751820142#5" to="-474803144#1"/>
    <trip id="178" depart="178.00" from="7503796#0" to="-7272531#0"/>
    <trip id="179" depart="179.00" from="-305454870#17" to="-7501551#4"/>
    <trip id="180" depart="180.00" from="680798331#5" to="-7343089#1"/>
    <trip id="181" depart="181.00" from="353236278#0" to="164423275#0"/>
    <trip id="182" depart="182.00" from="-7416276#1" to="305454133#7"/>
    <trip id="183" depart="183.00" from="-7248314#0" to="646809382#0"/>
    <trip id="184" depart="184.00" from="-144183752#3" to="7462583#6"/>
    <trip id="185" depart="185.00" from="185937924#6" to="7193797#1"/>
    <trip id="186" depart="186.00" from="7214385#2" to="45101489#15"/>
    <trip id="187" depart="187.00" from="-7391774#1" to="-305454116#4"/>
    <trip id="188" depart="188.00" from="45101456#2" to="-7367387#2"/>
    <trip id="189" depart="189.00" from="-7329525#1" to="7367380#1"/>
    <trip id="190" depart="190.00" from="62233518#4" to="-7319656#0"/>
    <trip id="191" depart="191.00" from="-7319656#2" to="-7462588#1"/>
    <trip id="192" depart="192.00" from="-7438579#2" to="-7312944#9"/>
    <trip id="193" depart="193.00" from="-43052069#6" to="-7477110#3"/>
    <trip id="194" depart="194.00" from="7474067#0" to="45101504#2"/>
    <trip id="195" depart="195.00" from="7430963#1" to="43783233#1"/>
    <trip id="196" depart="196.00" from="-7312944#14" to="305454116#9"/>
    <trip id="197" depart="197.00" from="-144183752#0" to="-7305016#0"/>
    <trip id="198" depart="198.00" from="-7471244#2" to="305454136#5"/>
    <trip id="199" depart="199.00" from="43853651#4" to="-912286632#1"/>
    <trip id="200" depart="200.00" from="-7495892#4" to="-7196002#3"/>
    <trip id="201" depart="201.00" from="-856234945#2" to="7431315#2"/>
    <trip id="202" depart="202.00" from="7280850" to="-45101489#15"/>
    <trip id="203" depart="203.00" from="-305454127#2" to="164423280"/>
    <trip id="204" depart="204.00" from="43783247#0" to="-7375252"/>
    <trip id="205" depart="205.00" from="7316755#4" to="7235610#2"/>
    <trip id="206" depart="206.00" from="45101488#10" to="-7215818#1"/>
    <trip id="207" depart="207.00" from="-611356632#6" to="-164423267#15"/>
    <trip id="208" depart="208.00" from="-7235610#1" to="164327744#2"/>
    <trip id="209" depart="209.00" from="7365533#1" to="-305454118#1"/>
    <trip id="210" depart="210.00" from="-7458814#2" to="43784980#13"/>
    <trip id="211" depart="211.00" from="-611356541#6" to="611356541#2"/>
    <trip id="212" depart="212.00" from="164327748#10" to="-7241194#0"/>
    <trip id="213" depart="213.00" from="43853817#1" to="-164327744#0"/>
    <trip id="214" depart="214.00" from="7232192#10" to="7250410#2"/>
    <trip id="215" depart="215.00" from="-305454870#13" to="-7486505#0"/>
    <trip id="216" depart="216.00" from="-45101489#9" to="7501551#9"/>
    <trip id="217" depart="217.00" from="164423269#5" to="-185937924#13"/>
    <trip id="218" depart="218.00" from="-724304800" to="7367387#1"/>
    <trip id="219" depart="219.00" from="-751820141" to="7301191#2"/>
    <trip id="220" depart="220.00" from="45101458#5" to="856234945#17"/>
    <trip id="221" depart="221.00" from="305454870#13" to="7495892#1"/>
    <trip id="222" depart="222.00" from="7409247#3" to="43783206#1"/>
    <trip id="223" depart="223.00" from="62233518#3" to="164423269#4"/>
    <trip id="224" depart="224.00" from="7339908#2" to="305454116#9"/>
    <trip id="225" depart="225.00" from="7416217" to="7232192#4"/>
    <trip id="226" depart="226.00" from="-856234945#4" to="-725807842#1"/>
    <trip id="227" depart="227.00" from="-7237579#1" to="43853525"/>
    <trip id="228" depart="228.00" from="7241194#2" to="182417510#5"/>
    <trip id="229" depart="229.00" from="43783232" to="-7275164#0"/>
    <trip id="230" depart="230.00" from="-305454118#7" to="-7301191#0"/>
    <trip id="231" depart="231.00" from="-7266186#3" to="-7349902#0"/>
    <trip id="232" depart="232.00" from="185937927#0" to="-43853619#2"/>
    <trip id="233" depart="233.00" from="-7222927" to="611356517#2"/>
    <trip id="234" depart="234.00" from="611356524#0" to="-305454115#4"/>
    <trip id="235" depart="235.00" from="-7444816#3" to="305454116#1"/>
    <trip id="236" depart="236.00" from="-7458814#5" to="-680798331#1"/>
    <trip id="237" depart="237.00" from="-7462588#3" to="7438579#10"/>
    <trip id="238" depart="238.00" from="305454133#17" to="611356541#0"/>
    <trip id="239" depart="239.00" from="7376149#0" to="7248314#2"/>
    <trip id="240" depart="240.00" from="-7410861" to="-164327744#0"/>
    <trip id="241" depart="241.00" from="-7385396#2" to="7237579#2"/>
    <trip id="242" depart="242.00" from="7369117#0" to="7497620"/>
    <trip id="243" depart="243.00" from="-7462588#1" to="7232923#4"/>
    <trip id="244" depart="244.00" from="305453665#0" to="43052069#10"/>
    <trip id="245" depart="245.00" from="-7206344#1" to="-7211536#1"/>
    <trip id="246" depart="246.00" from="-7484919#1" to="-164423269#0"/>
    <trip id="247" depart="247.00" from="-7357599" to="45101520#3"/>
    <trip id="248" depart="248.00" from="-7438579#6" to="-45101488#5"/>
    <trip id="249" depart="249.00" from="-7521539#0" to="-43783247#0"/>
    <trip id="250" depart="250.00" from="43052069#9" to="-164423267#5"/>
    <trip id="251" depart="251.00" from="-7432666" to="305454128#4"/>
    <trip id="252" depart="252.00" from="-164423267#3" to="43853651#3"/>
    <trip id="253" depart="253.00" from="-43784980#5" to="-856234945#5"/>
    <trip id="254" depart="254.00" from="-185937924#1" to="-7427575#0"/>
    <trip id="255" depart="255.00" from="-7193797#0" to="-7359997#1"/>
    <trip id="256" depart="256.00" from="7235578#0" to="-7427575#0"/>
    <trip id="257" depart="257.00" from="7232192#12" to="7343089#0"/>
    <trip id="258" depart="258.00" from="-7246369#2" to="-305454127#0"/>
    <trip id="259" depart="259.00" from="-164327763#2" to="305454115#3"/>
    <trip id="260" depart="260.00" from="936668811#8" to="-7389380#6"/>
    <trip id="261" depart="261.00" from="43853619#3" to="7274282#1"/>
    <trip id="262" depart="262.00" from="43853628#1" to="7241194#1"/>
    <trip id="263" depart="263.00" from="7491075#0" to="-62233517#2"/>
    <trip id="264" depart="264.00" from="-164327782" to="-45101455#2"/>
    <trip id="265" depart="265.00" from="-43052069#3" to="45101489#13"/>
    <trip id="266" depart="266.00" from="305454122#0" to="-7206344#1"/>
    <trip id="267" depart="267.00" from="476734746#1" to="7248314#6"/>
    <trip id="268" depart="268.00" from="-45101488#8" to="43052069#20"/>
    <trip id="269" depart="269.00" from="7220548" to="-353236278#1"/>
    <trip id="270" depart="270.00" from="7318572#1" to="7508916#0"/>
    <trip id="271" depart="271.00" from="-305454870#16" to="-164423267#2"/>
    <trip id="272" depart="272.00" from="-7328091#2" to="45101504#2"/>
    <trip id="273" depart="273.00" from="7501551#5" to="-7444816#0"/>
    <trip id="274" depart="274.00" from="611356632#7" to="-305454118#8"/>
    <trip id="275" depart="275.00" from="45101520#1" to="43784950#1"/>
    <trip id="276" depart="276.00" from="-305454136#4" to="725807842#1"/>
    <trip id="277" depart="277.00" from="7367380#0" to="425424824#4"/>
    <trip id="278" depart="278.00" from="-43052069#12" to="828037169#1"/>
    <trip id="279" depart="279.00" from="7264218#0" to="-7389296#1"/>
    <trip id="280" depart="280.00" from="-7468637#6" to="-7411673#0"/>
    <trip id="281" depart="281.00" from="164423265" to="-7385407#1"/>
    <trip id="282" depart="282.00" from="7365528" to="7336680#0"/>
    <trip id="283" depart="283.00" from="-305454870#10" to="7503345#4"/>
    <trip id="284" depart="284.00" from="43783257#1" to="7340873#1"/>
    <trip id="285" depart="285.00" from="611356524#2" to="-7501551#6"/>
    <trip id="286" depart="286.00" from="7196002#2" to="7508916#1"/>
    <trip id="287" depart="287.00" from="-7264218#1" to="7312944#3"/>
    <trip id="288" depart="288.00" from="185937924#6" to="164327748#6"/>
    <trip id="289" depart="289.00" from="-7484919#1" to="7214385#3"/>
    <trip id="290" depart="290.00" from="-7263604#1" to="7370986"/>
    <trip id="291" depart="291.00" from="7339908#2" to="-305454129#4"/>
    <trip id="292" depart="292.00" from="7402022#0" to="-7241194#0"/>
    <trip id="293" depart="293.00" from="-7520841#6" to="43052069#7"/>
    <trip id="294" depart="294.00" from="-7409247#1" to="-164423267#9"/>
    <trip id="295" depart="295.00" from="7367380#1" to="-474803144#8"/>
    <trip id="296" depart="296.00" from="-7193797#1" to="7282877"/>
    <trip id="297" depart="297.00" from="-7367387#0" to="7402022#4"/>
    <trip id="298" depart="298.00" from="476746190" to="-7281531#10"/>
    <trip id="299" depart="299.00" from="-164327746#1" to="7491075#0"/>
    <trip id="300" depart="300.00" from="-305454128#1" to="7195502#1"/>
    <trip id="301" depart="301.00" from="164327745#1" to="7246369#1"/>
    <trip id="302" depart="302.00" from="45101520#1" to="45101432#1"/>
    <trip id="303" depart="303.00" from="164327746#2" to="7281531#15"/>
    <trip id="304" depart="304.00" from="-305454133#10" to="-7214385#2"/>
    <trip id="305" depart="305.00" from="45101520#4" to="-7336680#0"/>
    <trip id="306" depart="306.00" from="305454133#10" to="164327737#0"/>
    <trip id="307" depart="307.00" from="164423321#7" to="-7486505#0"/>
    <trip id="308" depart="308.00" from="7219683#2" to="-7368591#0"/>
    <trip id="309" depart="309.00" from="551334422#0" to="-7274939#1"/>
    <trip id="310" depart="310.00" from="-7246369#0" to="-43052069#18"/>
    <trip id="311" depart="311.00" from="-611356541#2" to="-43052069#15"/>
    <trip id="312" depart="312.00" from="185937924#12" to="7248314#11"/>
    <trip id="313" depart="313.00" from="-476734746#0" to="-7198587#2"/>
    <trip id="314" depart="314.00" from="144183753#4" to="7198587#1"/>
    <trip id="315" depart="315.00" from="7521530#2" to="185937924#13"/>
    <trip id="316" depart="316.00" from="-7280850" to="-305454136#6"/>
    <trip id="317" depart="317.00" from="-611356541#5" to="-7219683#5"/>
    <trip id="318" depart="318.00" from="-466747370" to="-164327748#3"/>
    <trip id="319" depart="319.00" from="185937924#0" to="-7274939#9"/>
    <trip id="320" depart="320.00" from="7520841#3" to="305454122#1"/>
    <trip id="321" depart="321.00" from="474803144#9" to="-43783226"/>
    <trip id="322" depart="322.00" from="7389296#0" to="164423260"/>
    <trip id="323" depart="323.00" from="7389380#8" to="305454133#2"/>
    <trip id="324" depart="324.00" from="-856234945#1" to="-7504123#1"/>
    <trip id="325" depart="325.00" from="-476734743#1" to="-185937924#3"/>
    <trip id="326" depart="326.00" from="7477110#1" to="164327746#1"/>
    <trip id="327" depart="327.00" from="7328091#0" to="-7452654#0"/>
    <trip id="328" depart="328.00" from="-305454116#9" to="43784980#13"/>
    <trip id="329" depart="329.00" from="-185937924#4" to="-45101451#3"/>
    <trip id="330" depart="330.00" from="305454118#8" to="-7329519"/>
    <trip id="331" depart="331.00" from="912286632#1" to="-43052069#13"/>
    <trip id="332" depart="332.00" from="7237579#2" to="43052069#17"/>
    <trip id="333" depart="333.00" from="7274285" to="-7219683#1"/>
    <trip id="334" depart="334.00" from="164423273#1" to="-7520841#3"/>
    <trip id="335" depart="335.00" from="-7495892#5" to="7385407#0"/>
    <trip id="336" depart="336.00" from="856234945#4" to="-7332241#0"/>
    <trip id="337" depart="337.00" from="43052069#6" to="43052069#5"/>
    <trip id="338" depart="338.00" from="7212468#0" to="7491070#1"/>
    <trip id="339" depart="339.00" from="-680798331#1" to="-7193887"/>
    <trip id="340" depart="340.00" from="45101451#3" to="-45101458#5"/>
    <trip id="341" depart="341.00" from="-45101489#3" to="-305454118#6"/>
    <trip id="342" depart="342.00" from="-144183753#2" to="-7520841#3"/>
    <trip id="343" depart="343.00" from="305454870#1" to="-7312944#12"/>
    <trip id="344" depart="344.00" from="-7222927" to="62233518#4"/>
    <trip id="345" depart="345.00" from="551334422#0" to="-7521539#0"/>
    <trip id="346" depart="346.00" from="45101501#0" to="7462583#0"/>
    <trip id="347" depart="347.00" from="7274282#3" to="43783258#4"/>
    <trip id="348" depart="348.00" from="45101451#5" to="7468637#1"/>
    <trip id="349" depart="349.00" from="-7464964#7" to="305454116#13"/>
    <trip id="350" depart="350.00" from="43853466" to="7438579#18"/>
    <trip id="351" depart="351.00" from="7336686" to="-305454116#7"/>
    <trip id="352" depart="352.00" from="-45101488#2" to="-7338102"/>
    <trip id="353" depart="353.00" from="7226436#2" to="305454130#5"/>
    <trip id="354" depart="354.00" from="-7281531#4" to="-43052069#7"/>
    <trip id="355" depart="355.00" from="45101504#0" to="611356631#3"/>
    <trip id="356" depart="356.00" from="7482133" to="164423267#8"/>
    <trip id="357" depart="357.00" from="164327748#0" to="-305454126#6"/>
    <trip id="358" depart="358.00" from="-164423275#0" to="-7497620"/>
    <trip id="359" depart="359.00" from="-7340873#2" to="-7248314#11"/>
    <trip id="360" depart="360.00" from="-305454130#4" to="7504123#0"/>
    <trip id="361" depart="361.00" from="7343089#1" to="305454133#3"/>
    <trip id="362" depart="362.00" from="7492761#1" to="936668811#7"/>
    <trip id="363" depart="363.00" from="45101488#1" to="-7274282#8"/>
    <trip id="364" depart="364.00" from="-164423275#1" to="7245405#0"/>
    <trip id="365" depart="365.00" from="-856234945#13" to="45101456#1"/>
    <trip id="366" depart="366.00" from="7438579#8" to="-474803144#7"/>
    <trip id="367" depart="367.00" from="305454133#19" to="43838457"/>
    <trip id="368" depart="368.00" from="164327746#5" to="-305454133#11"/>
    <trip id="369" depart="369.00" from="-7376149#1" to="-7371709#0"/>
    <trip id="370" depart="370.00" from="45101487#2" to="7385066#2"/>
    <trip id="371" depart="371.00" from="-7349404" to="611356517#2"/>
    <trip id="372" depart="372.00" from="-7281531#4" to="7484919#3"/>
    <trip id="373" depart="373.00" from="7312944#4" to="305454118#4"/>
    <trip id="374" depart="374.00" from="-7504646" to="-7343970#0"/>
    <trip id="375" depart="375.00" from="-7340873#4" to="751820142#6"/>
    <trip id="376" depart="376.00" from="-7438579#6" to="164423278"/>
    <trip id="377" depart="377.00" from="856234945#2" to="45101487#1"/>
    <trip id="378" depart="378.00" from="185937928#2" to="-7464964#5"/>
    <trip id="379" depart="379.00" from="-476746205" to="-7402028#0"/>
    <trip id="380" depart="380.00" from="7232192#9" to="43783258#5"/>
    <trip id="381" depart="381.00" from="7234274#0" to="-647773960#3"/>
    <trip id="382" depart="382.00" from="305454115#13" to="7462588#4"/>
    <trip id="383" depart="383.00" from="-7491070#1" to="611356541#6"/>
    <trip id="384" depart="384.00" from="-43052069#13" to="7520841#11"/>
    <trip id="385" depart="385.00" from="425424824#1" to="-7234269#1"/>
    <trip id="386" depart="386.00" from="-45101458#3" to="305454118#6"/>
    <trip id="387" depart="387.00" from="305454115#7" to="-305454133#17"/>
    <trip id="388" depart="388.00" from="856234945#9" to="7439412#2"/>
    <trip id="389" depart="389.00" from="-7519882" to="-43052069#11"/>
    <trip id="390" depart="390.00" from="7340873#1" to="164423267#3"/>
    <trip id="391" depart="391.00" from="62233517#0" to="164423272#4"/>
    <trip id="392" depart="392.00" from="-7272531#1" to="7344873"/>
    <trip id="393" depart="393.00" from="819254212#0" to="-7237579#1"/>
    <trip id="394" depart="394.00" from="305454115#4" to="-7431315#2"/>
    <trip id="395" depart="395.00" from="7452654#1" to="164423272#3"/>
    <trip id="396" depart="396.00" from="7399721#0" to="7387551#1"/>
    <trip id="397" depart="397.00" from="-7274282#4" to="7280850"/>
    <trip id="398" depart="398.00" from="-7458814#3" to="7468637#2"/>
    <trip id="399" depart="399.00" from="164423267#11" to="7332241#0"/>
    <trip id="400" depart="400.00" from="-7280850" to="-7318572#0"/>
    <trip id="401" depart="401.00" from="305454133#4" to="936668811#6"/>
    <trip id="402" depart="402.00" from="164327746#0" to="-45101451#2"/>
    <trip id="403" depart="403.00" from="185937924#7" to="-7387551#1"/>
    <trip id="404" depart="404.00" from="305454115#6" to="305454116#11"/>
    <trip id="405" depart="405.00" from="-7508916#0" to="-7352278#1"/>
    <trip id="406" depart="406.00" from="-611356512" to="611356541#5"/>
    <trip id="407" depart="407.00" from="305454126#7" to="-7232192#2"/>
    <trip id="408" depart="408.00" from="7248314#5" to="-164423321#1"/>
    <trip id="409" depart="409.00" from="7215818#1" to="62233517#2"/>
    <trip id="410" depart="410.00" from="7312944#11" to="-7435417#1"/>
    <trip id="411" depart="411.00" from="45101456#1" to="7332241#0"/>
    <trip id="412" depart="412.00" from="819254212#1" to="164423267#12"/>
    <trip id="413" depart="413.00" from="-164423272#2" to="164423269#11"/>
    <trip id="414" depart="414.00" from="305454136#3" to="7389380#7"/>
    <trip id="415" depart="415.00" from="7390191" to="-7504123#0"/>
    <trip id="416" depart="416.00" from="164423276#2" to="-856234945#13"/>
    <trip id="417" depart="417.00" from="646809382#3" to="-7462590"/>