<?xml version="1.0" encoding="UTF-8"?>

<!-- generated on 2021-09-26 19:10:44 by Eclipse SUMO duarouter Version 1.10.0
<configuration xmlns:xsi="http://www.w3.org/2001/XMLSchema-instance" xsi:noNamespaceSchemaLocation="http://sumo.dlr.de/xsd/duarouterConfiguration.xsd">

    <input>
        <net-file value="csusb.net.xml"/>
        <route-files value="csusb.trips.xml"/>
    </input>

    <output>
        <output-file value="csusb.rou.xml"/>
        <alternatives-output value="csusb.rou.alt.xml"/>
    </output>

    <report>
        <ignore-errors value="true"/>
    </report>

</configuration>
-->

<routes xmlns:xsi="http://www.w3.org/2001/XMLSchema-instance" xsi:noNamespaceSchemaLocation="http://sumo.dlr.de/xsd/routes_file.xsd">
    <vehicle id="1" depart="1.00">
        <route edges="-7274282#2 -7329519 7462588#4 -7409247#2 305454116#6 305454116#7 305454116#8 305454116#9 305454116#10 305454116#11 305454116#12 305454116#13 305454116#14 305454115#0 305454115#1 305454115#2 305454115#3 305454115#4 305454115#5 305454115#6 305454115#7 305454115#8 305454115#9 305454115#10 305454115#12 305454115#13 305454115#17 611356632#1 611356632#2 611356632#3 611356632#4 611356632#5 611356632#6 611356632#7 305454911#0 305454911#1 305454911#2 305454911#3 305454911#4 305454911#5 305454911#6 -305454122#3 -305454122#2 -305454122#1 -305454122#0 185937928#0 185937928#1 185937928#2 185937928#3 -7344873 7214396#2 -7214396#2"/>
    </vehicle>
    <vehicle id="2" depart="2.00">
        <route edges="7198587#1 -7198587#1 -7198587#0 305453665#1 7447182#0 7447182#1 7447182#2 7447172 7434914 -7503345#3 -7503345#2 -7503345#1 -7503345#0 -45101451#8 -45101451#7 -45101451#6 -45101451#5 -45101451#4 -45101451#3 -45101451#2 -45101451#0 -62233517#2 -62233517#1 -62233517#0 -62233511 -185937927#3 -185937927#2 -185937927#1 -185937927#0 -185937928#4 -185937928#3 -185937928#2 -185937928#1 -185937928#0 305454122#0 305454122#1 305454122#2 305454122#3 305454120#1 45101504#0 45101504#1"/>
    </vehicle>
    <vehicle id="3" depart="3.00">
        <route edges="7410866#1 7204028 7245393#1 7359997#1 305454129#5 -305454129#5"/>
    </vehicle>
    <vehicle id="4" depart="4.00">
        <route edges="-7464964#0 305454870#9 305454870#10 305454870#11 305454870#12 305454870#13 305454870#14 305454870#15 305454870#16 305454870#17 305454935#0 305454935#1 305454935#2 185937924#0 185937924#1 7247822#0 7247822#1 164423269#1 164423269#2 164423269#3 164423269#4 164423269#5 164423269#6 164423269#7 164423269#8 164423269#9 164423269#10 -164423269#10"/>
    </vehicle>
    <vehicle id="5" depart="5.00">
        <route edges="-7198587#2 -7198587#1 -7198587#0 305453665#1 7447182#0 7447182#1 7447182#2 7447172 7434914 -7503345#3 -7503345#2 -7503345#1 -7503345#0 -45101451#8 -45101451#7 -45101451#6 -45101451#5 -45101451#4 -45101451#3 -45101451#2 -45101451#0 -62233517#2 -62233517#1 -62233517#0 -62233511 -185937927#3 -185937927#2 -185937927#1 -185937927#0 -185937928#4 -185937928#3 -185937928#2 -185937928#1 -185937928#0 305454122#0 305454122#1 305454122#2 305454122#3 -305454911#6 -305454911#5 -305454911#4 -305454911#3 -305454911#2 -305454911#1 -305454911#0 -305454128#4 -305454128#3 -305454128#2 -305454128#1 -185937924#13 -185937924#12 -185937924#11 -185937924#10 -185937924#9 -185937924#8 -185937924#7 -185937924#6 -185937924#5 -185937924#4 -185937924#3 -185937924#2 7247822#0 7247822#1 164423269#1 164423269#2 164423269#3 164423269#4 164423269#5"/>
    </vehicle>
    <vehicle id="6" depart="6.00">
        <route edges="-164423267#2 -164423267#1 -164423267#0 305454935#0 305454935#1 305454935#2 185937924#0 185937924#1 185937924#2 185937924#3 185937924#4 185937924#5 185937924#6 185937924#7 185937924#8 185937924#9 185937924#10 185937924#11 185937924#12 185937924#13 305454128#1 305454128#2 305454128#3 305454128#4 305454911#0 305454911#1 305454911#2 305454911#3 305454911#4 305454911#5 305454911#6 -305454122#3 -305454122#2 -305454122#1 -305454122#0 185937928#0 185937928#1 185937928#2 185937928#3 185937928#4 185937927#0 185937927#1 185937927#2 185937927#3 7389569 62233517#0 62233517#1 -62233517#1"/>
    </vehicle>
    <vehicle id="7" depart="7.00">
        <route edges="43853619#2 -43853619#2 -43853619#1 -43853619#0 -185937924#5 -185937924#4 -185937924#3 -185937924#2 7247822#0 7247822#1 164423269#1 164423269#2 164423269#3 164423269#4 164423269#5 164423269#6 164423269#7 164423269#8 164423269#9 164423269#10 164423269#11 164423269#12 164423269#13 164423269#14 -305454115#4 -305454115#3 -305454115#2 -305454115#1 -305454115#0 -305454116#14 305454116#14"/>
    </vehicle>
    <vehicle id="8" depart="8.00">
        <route edges="-7206344#0 -7338473#1 -7338473#0 -7385396#0 7369117#1 7435417#1 7435417#2 7435417#3 7435417#4 305454122#1 305454122#2 305454122#3 -305454911#6 -305454911#5 -305454911#4 -305454911#3 -305454911#2 -305454911#1 -305454911#0 -305454128#4 -305454128#3 -305454128#2 -305454128#1 -185937924#13 -185937924#12 -185937924#11 -185937924#10 -185937924#9 -185937924#8 -185937924#7 -185937924#6 -185937924#5 -185937924#4 -185937924#3 -185937924#2 -185937924#1 -185937924#0 -305454935#2 -305454935#1 -305454935#0 -305454870#17 -305454870#16 -305454870#15 -305454870#14 -305454870#13 -305454870#12 -305454870#11 -305454870#10 -305454870#9 305454870#9"/>
    </vehicle>
    <vehicle id="9" depart="9.00">
        <route edges="7312317#1 7245405#2 -611356632#3 -611356632#2 -611356632#1 -305454115#17 -305454115#13 -305454115#12 -305454115#10 -305454115#9 -305454115#8 -305454115#7 -305454115#6 -305454115#5 -305454115#4 -305454115#3 -305454115#2 -305454115#1 -305454115#0 -305454116#14 -305454116#13 -305454116#12 -305454116#11 -305454116#10 -305454116#9 -305454116#8 -305454130#5 -305454130#4 -305454130#3 -305454130#2 -305454130#1 -164327745#3 -164327745#2 -164327745#1 -7356163#1 -7356163#0 164327744#1 164327744#2 -164327744#2"/>
    </vehicle>
    <vehicle id="10" depart="10.00">
        <route edges="7301186#0 -7301186#0 7250410#2 -164423276#3 -305454127#3 -305454127#2 -305454127#1 -305454127#0 -7501551#10 -7501551#9 7402022#0 7402022#1 7402022#2 -611356541#6 611356541#6"/>
    </vehicle>
    <vehicle id="11" depart="11.00">
        <route edges="-7367387#0 43052069#16 43052069#17 -611356517#1 -611356517#0 -611356505 305454870#0 305454870#1 305454870#2 305454870#3 305454870#4 305454870#5 305454870#6 305454870#7 305454870#8 305454870#9 305454870#10 305454870#11 305454870#12 305454870#13 305454870#14 305454870#15 305454870#16 305454870#17 305454935#0 305454935#1 305454935#2 185937924#0 185937924#1 185937924#2 185937924#3 185937924#4 185937924#5 185937924#6 185937924#7 185937924#8 185937924#9 185937924#10 185937924#11 185937924#12 185937924#13 305454128#1 305454128#2 305454128#3 305454128#4 305454911#0 305454911#1 305454911#2 305454911#3 305454911#4 305454911#5 305454911#6 305454120#1 43783252#2 43783244#0 43783244#1 45101458#0 45101458#1 -45101458#1"/>
    </vehicle>
    <vehicle id="12" depart="12.00">
        <route edges="7501551#3 -7501551#3 -7501551#2 -7501551#1 -7501551#0 305454116#13 305454116#14 305454115#0 305454115#1 305454115#2 305454115#3 305454115#4 305454115#5 305454115#6 305454115#7 305454115#8 305454115#9 305454115#10 305454115#12 305454115#13 305454115#17 611356632#1 611356632#2 611356632#3 611356632#4 611356632#5 611356632#6 611356632#7 305454911#0 305454911#1 305454911#2 305454911#3 305454911#4 305454911#5 305454911#6 -305454122#3 -305454122#2 -305454122#1 -305454122#0 185937928#0 185937928#1 185937928#2 185937928#3 185937928#4 185937927#0 185937927#1 185937927#2 185937927#3 7389569 62233517#0 62233517#1 62233517#2 45101451#0 45101451#2 45101451#3 45101451#4 45101451#5 45101451#6 45101451#7 45101451#8 7503345#0 7503345#1 7503345#2 7503345#3 -7434914 -7447172 -7447182#2 -7447182#1 -7447182#0 -305453665#1 -305453665#0 -7380308#0"/>
    </vehicle>
    <vehicle id="13" depart="13.00">
        <route edges="-305454133#1 305454133#1 305454133#2 305454133#3 305454133#4 305454133#5 305454133#7 -305454133#7"/>
    </vehicle>
    <vehicle id="14" depart="14.00">
        <route edges="7356163#0 7356163#1 164327745#1 164327745#2 164327745#3 425424824#7 425424824#8 425424824#9 425424824#10 425424824#11 144183753#0 144183753#1 144183753#2 -7215818#1 -7215818#0 43052069#9 43052069#10 43052069#11"/>
    </vehicle>
    <vehicle id="15" depart="15.00">
        <route edges="7301191#2 -7301191#2 -7301191#1 7491070#0 7491070#1 -7501551#8 -7501551#7 -7501551#6 -7501551#5 -7501551#4 -7501551#3 -7501551#2 -7501551#1 -7501551#0 305454116#13 305454116#14 305454115#0 305454115#1 305454115#2 305454115#3 305454115#4 305454115#5 305454115#6 305454115#7 305454115#8 305454115#9 305454115#10 305454115#12 305454115#13 305454115#17 -647773960#5 -647773960#4 -647773960#3 -647773960#2 -305454114#1 -7274939#10 -7274939#9 -7274939#8 7214385#0"/>
    </vehicle>
    <vehicle id="16" depart="16.00">
        <route edges="185937924#13 305454128#1 305454128#2 305454128#3 305454128#4 305454911#0 305454911#1 305454911#2 7389380#3 7389380#4 -7226436#2 -7226436#1 -7226436#0 -7520841#11 7520841#11"/>
    </vehicle>
    <vehicle id="17" depart="17.00">
        <route edges="-7409247#0 7438579#3 7339908#0 7339908#1 7339908#2 305454116#7 305454116#8 305454116#9 305454116#10 305454116#11 305454116#12 305454116#13 305454116#14 305454115#0 305454115#1 305454115#2 305454115#3 305454115#4 305454136#0 305454136#1 305454136#2 305454136#3 305454136#4 305454136#5 305454118#0 305454118#1 305454118#2 305454118#3 305454118#4 305454118#5 305454118#6 305454118#7 305454118#8 305454118#9"/>
    </vehicle>
    <vehicle id="18" depart="18.00">
        <route edges="7339865 -7339883 7368591#0 7368591#1 7356163#1 164327745#1 164327745#2 164327745#3 936668811#3 936668811#4 936668811#5 936668811#6 936668811#7 936668811#8 7342056#1 7342056#1-AddedOffRampEdge 7342056#2 43783206#0 43783206#1 43783206#2 43783252#2 43783244#0 43783244#1 43783244#2 43783240#3"/>
    </vehicle>
    <vehicle id="19" depart="19.00">
        <route edges="7385396#3 -7248314#8 -7248314#7 -7248314#6 -7248314#5 828037166#3 -305454911#6 -305454911#5 -305454911#4 -305454911#3 -305454911#2 -305454911#1 -305454911#0 -305454128#4 -305454128#3 -305454128#2 -305454128#1 -185937924#13 -185937924#12 -185937924#11 -185937924#10 -185937924#9 -185937924#8 -185937924#7 -185937924#6 -185937924#5 -185937924#4 -185937924#3 -185937924#2 -185937924#1 -185937924#0 -305454935#2 -305454935#1 -305454935#0 -305454870#17 -305454870#16 305454133#0 305454133#1 305454133#2 305454133#3 305454133#4 305454133#5 305454133#7 305454133#8 305454133#9"/>
    </vehicle>
    <vehicle id="20" depart="20.00">
        <route edges="611356512 305454870#0 305454870#1 305454870#2 305454870#3 305454870#4 305454870#5 305454870#6 305454870#7 305454870#8 305454870#9 305454870#10 305454870#11 305454870#12 305454870#13 305454870#14 305454870#15 305454870#16 305454870#17 305454935#0 305454935#1 305454935#2 185937924#0 185937924#1 185937924#2 185937924#3 185937924#4 7275164#0 7275164#1 164423321#1 164423321#2 164423321#3 -164423321#3"/>
    </vehicle>
    <vehicle id="22" depart="22.00">
        <route edges="-305454122#2 305454122#2 305454122#3 -305454911#6 -305454911#5 -305454911#4 -305454911#3 -305454911#2 -305454911#1 -305454911#0 -611356632#7 -611356632#6 -611356632#5 -611356632#4 -611356632#3 -611356632#2 -611356632#1 -305454115#17 -305454115#13 -305454115#12 -305454115#10 -305454115#9 -305454115#8 -305454115#7 -305454115#6 -305454115#5 -305454115#4 -305454115#3 -305454115#2 7232192#12 7232192#13 -7232192#13"/>
    </vehicle>
    <vehicle id="24" depart="24.00">
        <route edges="43783257#2 43783257#3 43783258#3 43783258#4 43783258#5 43783258#6 -185937927#3 -185937927#2 -185937927#1 -185937927#0 -185937928#4 -185937928#3 -185937928#2 -185937928#1 -7235610#3 -7235610#2 -7235610#1 7407972#0 7407972#1 7407972#2 -7407972#2"/>
    </vehicle>
    <vehicle id="25" depart="25.00">
        <route edges="-7402022#1 -7402022#0 -7491070#1 -7491070#0 7301191#1 -7491075#2 -7491075#1 -7491075#0 -305454130#2 -7274282#4 -7274282#3 -7274282#2 -7274282#1 -7193793"/>
    </vehicle>
    <vehicle id="27" depart="27.00">
        <route edges="43853468 -43853459#0 -305454115#12 -305454115#10 -305454115#9 -305454115#8 -305454115#7 -305454115#6 -305454115#5 -305454115#4 -305454115#3 -305454115#2 -305454115#1 -305454115#0 -305454116#14 -305454116#13 -305454116#12 -305454116#11 -305454116#10 -305454116#9 -305454116#8 -305454116#7 -305454116#6 -305454116#5 -305454116#4 -305454116#3 -305454116#1 -305454116#0 -144183753#2 -144183753#1 7399721#0 7399721#1 -43052069#3 43052069#3"/>
    </vehicle>
    <vehicle id="28" depart="28.00">
        <route edges="-45101489#14 45101489#14 45101489#15 45101489#16 45101489#17 45101489#18 45101501#0 45101501#1 45101501#3 43783239#1 43783239#2 43783239#3 43783239#4 551334422#0 551334422#1 45101504#1 45101504#2 45101504#3 -305454911#6 -305454911#5 -305454911#4 -305454911#3 -305454911#2 -305454911#1 -305454911#0 -305454128#4 -305454128#3 -305454128#2 -305454128#1 -185937924#13 -185937924#12 -185937924#11 -185937924#10 -185937924#9 -185937924#8 -185937924#7 -185937924#6 -185937924#5 -185937924#4 -185937924#3 -185937924#2 -185937924#1 -185937924#0 -305454935#2 -305454935#1 -305454935#0 -305454870#17 -305454870#16 -305454870#15 -305454870#14 -305454870#13 -305454870#12 -305454870#11 -305454870#10 -305454870#9 -305454870#8 -305454870#7 -305454870#6 -305454870#5 -305454870#4 -305454870#3 -305454870#2 -305454870#1 -305454870#0 611356505 611356517#0 -7212468#1 7212468#1"/>
    </vehicle>
    <vehicle id="32" depart="32.00">
        <route edges="7352278#0 -7432666 -7248314#13 7235578#0 -7407972#2 -7407972#1 -7407972#0 7235610#1 7235610#2 7235610#3 -185937928#0 305454122#0 305454122#1 305454122#2 305454122#3 -305454911#6 -305454911#5 -305454911#4 -305454911#3 -7389380#2 -7389380#1 -7400511 -7264218#0 7264218#0"/>
    </vehicle>
    <vehicle id="34" depart="34.00">
        <route edges="-7334654 -7198587#1 -7198587#0 305453665#1 7447182#0 7447182#1 7447182#2 7447172 7434914 -7503345#3 -7503345#2 -7503345#1 -7503345#0 -45101451#8 -45101451#7 -45101451#6 -45101451#5 -45101451#4 -45101451#3 -45101451#2 -45101451#0 -62233517#2 -62233517#1 -62233517#0 -62233511 -185937927#3 -185937927#2 -185937927#1 -185937927#0 -185937928#4 -185937928#3 -185937928#2 -185937928#1 -185937928#0 305454122#0 305454122#1 305454122#2 305454122#3 -305454911#6 -305454911#5 -305454911#4 -305454911#3 -305454911#2 -305454911#1 -305454911#0 -611356632#7 -611356632#6 -611356632#5 -611356632#4 -611356632#3 -611356632#2 -611356632#1 -305454115#17 -305454115#13 -305454115#12 -305454115#10 -305454115#9 -305454115#8 -305454115#7 -305454115#6 -305454115#5 -305454115#4 -305454115#3 -305454115#2 -305454115#1 -305454115#0 -305454116#14 -305454116#13 -305454116#12 -305454116#11 -305454116#10 -305454116#9 -305454116#8 -305454130#5 -305454130#4 -305454130#3 -305454130#2 -7274282#4"/>
    </vehicle>
    <vehicle id="35" depart="35.00">
        <route edges="-690192053 -7232192#13 -7232192#12 305454115#2 305454115#3 305454115#4 305454115#5 305454115#6 305454115#7 305454115#8 305454115#9 305454115#10 305454115#12 305454115#13 305454115#17 611356632#1 611356632#2 611356632#3 611356632#4 611356632#5 611356632#6 611356632#7 305454911#0 305454911#1 305454911#2 305454911#3 305454911#4 305454911#5 305454911#6 305454125#0 305454125#1 7248314#5 7248314#6 7248314#7 7248314#8 7248314#9 7248314#10 7483170#0"/>
    </vehicle>
    <vehicle id="36" depart="36.00">
        <route edges="7392770#2 -7392770#2 -7392770#1 -7392770#0 305454870#7 305454870#8 305454870#9 305454870#10 305454870#11 305454870#12 305454870#13 305454870#14 305454870#15 305454870#16 305454870#17 305454935#0 305454935#1 305454935#2 185937924#0 185937924#1 185937924#2 185937924#3 185937924#4 185937924#5 185937924#6 185937924#7 185937924#8 185937924#9 185937924#10 185937924#11 185937924#12 185937924#13 305454114#1 647773960#2 647773960#3 647773960#4 647773960#5 611356632#1 611356632#2 611356632#3 -7245405#2 -7245405#1 -7245405#0 -7410866#1 -7343970#1 -7343970#0"/>
    </vehicle>
    <vehicle id="37" depart="37.00">
        <route edges="43853694#2 -43853628#2 -43853619#0 -185937924#5 -185937924#4 -185937924#3 -185937924#2 -185937924#1 -185937924#0 -305454935#2 -305454935#1 -305454935#0 -305454870#17 -305454870#16 305454133#0 305454133#1 305454133#2 305454133#3 305454133#4 305454133#5 305454133#7 305454133#8 305454133#9 -7438579#11 -7438579#10 -7438579#8"/>
    </vehicle>
    <vehicle id="39" depart="39.00">
        <route edges="-7256121#2 -7256121#1 -7256121#0 305454115#9 305454115#10 305454115#12 305454115#13 305454115#17 611356632#1 611356632#2 611356632#3 -7245405#2 -7245405#1"/>
    </vehicle>
    <vehicle id="40" depart="40.00">
        <route edges="305454118#4 -305454118#4 -305454118#3 -305454118#2 -305454118#1 -305454118#0 -305454136#5 -305454136#4 -305454136#3 -305454136#2 -305454136#1 -305454136#0 -164423269#14 -164423269#13 -164423269#12 -164423269#11 -164423269#10 -164423269#9 -164423269#8 -164423269#7 -164423269#6 -164423269#5 -164423269#4 -164423269#3 -164423269#2 -164423269#1 -164423269#0 -7247822#0 -185937924#1 -185937924#0 -305454935#2 -305454935#1 -305454935#0 -305454870#17 -305454870#16 -305454870#15 -305454870#14 -305454870#13 -305454870#12 -305454870#11 -305454870#10 -305454870#9 -305454870#8 -305454870#7 -305454870#6 -305454870#5 -305454870#4 -305454870#3 -305454870#2 -305454870#1 7266186#0 -7266186#0"/>
    </vehicle>
    <vehicle id="42" depart="42.00">
        <route edges="-7438579#13 164423267#13 164423267#14 164423267#15 164423267#16 164423267#17 305454115#0 305454115#1 305454115#2 305454115#3 305454115#4 305454115#5 305454115#6 305454115#7 305454115#8 305454115#9 305454115#10 305454115#12 305454115#13 305454115#17 611356632#1 611356632#2 611356632#3 611356632#4 611356632#5 611356632#6 -7211536#1"/>
    </vehicle>
    <vehicle id="43" depart="43.00">
        <route edges="936668811#3 936668811#4 164423273#0 164423273#1"/>
    </vehicle>
    <vehicle id="44" depart="44.00">
        <route edges="-305454130#3 305454130#3 305454130#4 305454130#5 305454116#8 305454116#9 305454116#10 305454116#11 305454116#12 305454116#13 305454116#14 305454115#0 305454115#1 305454115#2 305454115#3 305454115#4 305454115#5 305454115#6 -164423321#10 -164423321#9 -164423321#8 -164423321#7"/>
    </vehicle>
    <vehicle id="45" depart="45.00">
        <route edges="-305454870#4 305454870#4 305454870#5 305454870#6 305454870#7 305454870#8 305454870#9 305454870#10 305454870#11 305454870#12 305454870#13 305454870#14 305454870#15 305454870#16 305454870#17 305454935#0 305454935#1 305454935#2 185937924#0 185937924#1 185937924#2 185937924#3 185937924#4 185937924#5 185937924#6 185937924#7 185937924#8 185937924#9 185937924#10 185937924#11 185937924#12 185937924#13 305454128#1 305454128#2 305454128#3 305454128#4 305454911#0 305454911#1 305454911#2 305454911#3 305454911#4 305454911#5 305454911#6 305454125#0 305454125#1 305454125#2 305454125#3 305454125#4 305454125#5 305454125#6 305454125#7 828037169#0 828037169#1 336945547 43784950#1-AddedOnRampEdge 43784950#1"/>
    </vehicle>
    <vehicle id="46" depart="46.00">
        <route edges="7274939#2 7274939#3 7274939#4 7274939#5 7274939#6 7274939#8 7274939#9 7274939#10 305454128#1 305454128#2 305454128#3 305454128#4 305454911#0 305454911#1 305454911#2 305454911#3 305454911#4 305454911#5 305454911#6 -305454122#3 -305454122#2 -305454122#1 -7435417#4 -7435417#3 -7435417#2 -7435417#1 -7369117#1 7385396#0 7385396#1 -7483170#1"/>
    </vehicle>
    <vehicle id="48" depart="48.00">
        <route edges="912727603#5 -912727603#5 -912727603#4 -912727603#3 -912727603#2 -912727603#1 -912727603#0 -164423261#1 -164423261#0 45101482 -45101488#18 -45101488#17 -45101488#16 -45101458#5 -45101458#4 -45101458#3 -45101458#2 -45101458#1 -45101458#0 43783244#2 43783258#3 43783258#4 43783258#5 43783258#6 -185937927#3 -185937927#2 185937927#2"/>
    </vehicle>
    <vehicle id="49" depart="49.00">
        <route edges="751820142#7 -751820142#7 -751820142#6 -751820142#5 -751820142#4 -751820142#3 -751820141 -45101488#9 -45101488#8 -912286632#1 43783240#4 43783239#1 43783239#2 43783239#3 43783239#4 551334422#0 551334422#1 45101504#1 45101504#2 45101504#3 305454125#0 305454125#1 305454125#2 305454125#3 305454125#4 7385407#0 7385407#1"/>
    </vehicle>
    <vehicle id="50" depart="50.00">
        <route edges="-164327746#4 -164327744#2 -164327744#1 7356163#0 7356163#1 164327745#1 164327745#2 164327745#3 305454130#1 305454130#2 305454130#3 305454130#4 305454130#5 305454116#8 305454116#9 305454116#10 305454116#11 305454116#12 305454116#13 305454116#14 305454115#0 305454115#1 305454115#2 305454115#3 305454115#4 305454115#5 305454115#6 305454115#7 305454115#8 305454115#9 305454115#10 305454115#12 305454115#13 305454115#17 611356632#1 611356632#2 611356632#3 611356632#4 611356632#5 611356632#6 611356632#7 305454911#0 305454911#1 305454911#2 305454911#3 305454911#4 305454911#5 305454911#6 305454125#0 305454125#1 7248314#5 7248314#6 7248314#7 7248314#8 -7385396#3 7318572#1 7195605"/>
    </vehicle>
    <vehicle id="51" depart="51.00">
        <route edges="45101489#13 45101489#14 45101489#15 45101489#16 45101489#17 45101489#18 45101501#0 45101501#1 45101501#3 43783239#1 43783239#2 43783239#3 43783239#4 551334422#0 551334422#1 45101504#1 45101504#2 45101504#3 -305454911#6 -305454911#5 -305454911#4 -305454911#3 -305454911#2 -305454911#1 -305454911#0 -611356632#7 -611356632#6 -611356632#5 -611356632#4 -611356632#3 -611356632#2 -611356632#1 -305454115#17 -305454115#13 -305454115#12 -305454115#10 -305454115#9 -305454115#8 -305454115#7 -305454115#6 -305454115#5 -305454115#4 -305454115#3 -305454115#2 -305454115#1 305454115#1"/>
    </vehicle>
    <vehicle id="52" depart="52.00">
        <route edges="-7261506#0 -7385066#2 -7385066#1 -7385066#0 7434914 -7503345#3 -7503345#2 -7503345#1 -7503345#0 -45101451#8 -45101451#7 -45101451#6 -45101451#5 -45101451#4 -45101451#3 -45101451#2 -45101451#0 -62233517#2 -62233517#1 -62233517#0 -62233511 -185937927#3 -185937927#2 -185937927#1 -185937927#0 -185937928#4 -185937928#3 -185937928#2 -185937928#1 -185937928#0 305454122#0 305454122#1 305454122#2 305454122#3 -305454911#6 -305454911#5 -305454911#4 -305454911#3 -305454911#2 -305454911#1 -305454911#0 -305454128#4 -305454128#3 -305454128#2 -305454128#1 -185937924#13 -185937924#12 -185937924#11 -185937924#10 -185937924#9 -185937924#8 -185937924#7 -185937924#6 43853619#0 43853628#2"/>
    </vehicle>
    <vehicle id="53" depart="53.00">
        <route edges="-305454870#9 305454870#9 305454870#10 305454870#11 305454870#12 305454870#13 305454870#14 305454870#15 305454133#0 305454133#1 305454133#2 305454133#3 305454133#4 305454133#5 305454133#7 305454133#8 305454133#9 305454133#10 305454133#11 305454133#12 305454133#13 305454133#14 305454133#15 305454133#17 305454133#18 305454133#19 305454133#21 7501551#0 7501551#1 7501551#2 7501551#3 7501551#4 -7501551#4"/>
    </vehicle>
    <vehicle id="54" depart="54.00">
        <route edges="-7504123#2 -7504123#1 -7504123#0 -7468637#2 -7468637#1 7484919#2 7484919#3 -305454911#0 -611356632#7 -611356632#6 -611356632#5 -611356632#4 -611356632#3 -611356632#2 -611356632#1 -305454115#17 -305454115#13 -305454115#12 -305454115#10 -305454115#9 -305454115#8 -305454115#7 -305454115#6 -305454115#5 -305454115#4 -305454115#3 -305454115#2 -305454115#1 -305454115#0 -305454116#14 -305454116#13 7501551#0"/>
    </vehicle>
    <vehicle id="55" depart="55.00">
        <route edges="7392770#1 -7392770#1 -7392770#0 -305454870#6 -305454870#5 -305454870#4 -305454870#3 -305454870#2 -305454870#1 7266186#0 7266186#1 -7266186#1"/>
    </vehicle>
    <vehicle id="57" depart="57.00">
        <route edges="7438579#18 7438579#19 -164423321#2 -164423321#1 -164423321#0 -7275164#0 185937924#5 185937924#6 185937924#7 185937924#8 185937924#9 185937924#10 185937924#11 185937924#12 185937924#13 305454128#1 305454128#2 305454128#3 305454128#4 305454911#0 305454911#1 305454911#2 7389380#3 7389380#4 7389380#5 7389380#6 7389380#7 7389380#8 7389380#9"/>
    </vehicle>
    <vehicle id="58" depart="58.00">
        <route edges="-7312944#1 7312944#1 7468637#0 7484919#2 7484919#3 -305454911#0 -305454128#4 -305454128#3 -305454128#2 -305454128#1 -185937924#13 -185937924#12 -185937924#11 -185937924#10 -185937924#9 -185937924#8 -185937924#7 -185937924#6 43853619#0 43853619#1 43853619#2"/>
    </vehicle>
    <vehicle id="59" depart="59.00">
        <route edges="425424824#1 936668811#8 7342056#1 7342056#1-AddedOffRampEdge 7342056#2 43783206#0 43783206#1 43783206#2 43783252#2 43783244#0 -43783247#2 -43783247#1 -43783247#0 -45101456#1 -45101456#0"/>
    </vehicle>
    <vehicle id="60" depart="60.00">
        <route edges="7235610#2 7235610#3 -185937928#0 305454122#0 305454122#1 305454122#2 305454122#3 -305454911#6 -305454911#5 -305454911#4 -305454911#3 -305454911#2 -305454911#1 -305454911#0 -611356632#7 -611356632#6 -611356632#5 -611356632#4 -611356632#3 -611356632#2 -611356632#1 -305454115#17 -305454115#13 -305454115#12 -305454115#10 -305454115#9 -305454115#8 -305454115#7 -305454115#6 -305454115#5 -305454115#4 -305454115#3 305454115#3"/>
    </vehicle>
    <vehicle id="61" depart="61.00">
        <route edges="7250410#2 -164423276#3 -305454127#3 -305454127#2 -305454127#1 -305454127#0 -7501551#10 -7501551#9 -7501551#8 -7501551#7 -7501551#6 -7501551#5 -7501551#4 -7501551#3 -7501551#2 -7501551#1 -7501551#0 305454116#13 305454116#14 305454115#0 305454115#1 305454115#2 305454115#3 305454115#4 305454115#5 305454115#6 305454115#7 305454115#8 305454115#9 305454115#10 305454115#12 305454115#13 305454115#17 611356632#1 611356632#2 611356632#3 611356632#4 611356632#5 611356632#6 611356632#7 305454911#0 305454911#1 305454911#2 305454911#3 305454911#4 305454911#5 305454911#6 -305454122#3 -305454122#2 -305454122#1 -305454122#0 185937928#0 185937928#1"/>
    </vehicle>
    <vehicle id="63" depart="63.00">
        <route edges="-164327763#2 -164327763#1 -164327748#10 -164327748#9 -164327748#8 -164327748#7 -164327748#6 -164327748#4 -164327748#3 -164327748#2 -164327748#1 -164327748#0 305454116#3 305454116#4 305454116#5 305454116#6 305454116#7 305454116#8 305454116#9 305454116#10 305454116#11 305454116#12 305454116#13 305454116#14 305454115#0 305454115#1 305454115#2 305454115#3 305454115#4 305454115#5 305454115#6 305454115#7 305454115#8 305454115#9 305454115#10 305454115#12 305454115#13 305454115#17 611356632#1 611356632#2 611356632#3 -7245405#2 -7312317#1 -7312317#0 7464100#1"/>
    </vehicle>
    <vehicle id="64" depart="64.00">
        <route edges="7399717 -7399721#1 -7399721#0 -144183753#0 7342034 936668811#0 936668811#1 936668811#2 936668811#3 936668811#4 936668811#5 936668811#6 936668811#7 936668811#8 7342056#1 7342056#1-AddedOffRampEdge 7342056#2"/>
    </vehicle>
    <vehicle id="65" depart="65.00">
        <route edges="-7318572#1 7385396#3 -7248314#8 -7248314#7 -7248314#6 -7248314#5 828037166#3 305454120#1 43783208#1 43783208#2 43783208#3 43783208#4 646809382#0 646809382#1 646809382#2 646809382#3 646809382#4 611356637#1 425424824#1 425424824#2 425424824#3 245008167#0 -245008167#0"/>
    </vehicle>
    <vehicle id="66" depart="66.00">
        <route edges="7395088#2 7356163#0 7356163#1 164327745#1 164327745#2 164327745#3 305454130#1 305454130#2 7491075#0 7491075#1 7491075#2 -7301191#1 7491070#0"/>
    </vehicle>
    <vehicle id="67" depart="67.00">
        <route edges="-305454128#1 305454114#1 647773960#2 647773960#3 647773960#4 647773960#5 -305454115#17 -305454115#13 -305454115#12 -305454115#10 -305454115#9 -305454115#8 -305454115#7 -305454115#6 -305454115#5 -305454115#4 -305454115#3 -305454115#2 -305454115#1 -305454115#0 -305454116#14 -305454116#13 -305454116#12 -305454116#11 -305454116#10 -305454116#9 -305454116#8 -305454130#5 -305454130#4 -305454130#3 -305454130#2 -305454130#1 -164327745#3 -164327745#2 -164327745#1 -7356163#1 -7356163#0 -164327744#0 164327756"/>
    </vehicle>
    <vehicle id="68" depart="68.00">
        <route edges="-305454116#1 -305454116#0 144183753#3 144183753#4 144183753#5 144183753#6 144183753#7 611356512 305454870#0 305454870#1 305454870#2 305454870#3 305454870#4 305454870#5 305454870#6 305454870#7 305454870#8 305454870#9 305454870#10 305454870#11 305454870#12 305454870#13 305454870#14 305454870#15 305454870#16 305454870#17 305454935#0 305454935#1 305454935#2 185937924#0 185937924#1 7247822#0 7247822#1"/>
    </vehicle>
    <vehicle id="69" depart="69.00">
        <route edges="7241194#2 -7241194#2 -7241194#1 -7241194#0 -7204028 7245405#0 7245405#1 7245405#2 611356632#4 611356632#5 611356632#6 611356632#7 305454911#0 305454911#1 305454911#2 305454911#3 305454911#4 305454911#5 305454911#6 305454120#1 43783252#2 43783244#0 -43783247#2"/>
    </vehicle>
    <vehicle id="71" depart="71.00">
        <route edges="-7256121#2 -7256121#1 -7256121#0 -305454115#8 -305454115#7 -305454115#6 -305454115#5 -164423269#14 -164423269#13 -164423269#12 -164423269#11 -164423269#10 -164423269#9 -164423269#8 -164423269#7 -164423269#6 -164423269#5 -164423269#4 -164423269#3 -164423269#2 -164423269#1 -164423269#0 -7247822#0 -185937924#1 -185937924#0 -305454935#2 -305454935#1 -305454935#0 -305454870#17 -305454870#16 -305454870#15 -305454870#14 -305454870#13 -305454870#12 -305454870#11 -305454870#10 -305454870#9 -305454870#8 -305454870#7 7392770#0"/>
    </vehicle>
    <vehicle id="72" depart="72.00">
        <route edges="-7464964#2 7464964#2 7464964#3 7464964#4 7464964#5 7464964#6 7464964#7 -7438579#4 -7438579#3 -7438579#2 -7438579#1 -7195502#1 -7195502#0"/>
    </vehicle>
    <vehicle id="73" depart="73.00">
        <route edges="185937924#8 185937924#9 185937924#10 185937924#11 185937924#12 185937924#13 305454128#1 305454128#2 305454128#3 305454128#4 305454911#0 -7484919#3 7214385#1"/>
    </vehicle>
    <vehicle id="75" depart="75.00">