<?xml version="1.0" encoding="UTF-8"?>

<!-- generated on 2021-10-03 21:39:40 by Eclipse SUMO polyconvert Version 1.10.0
<configuration xmlns:xsi="http://www.w3.org/2001/XMLSchema-instance" xsi:noNamespaceSchemaLocation="http://sumo.dlr.de/xsd/polyconvertConfiguration.xsd">

    <input>
        <net-file value="csusb.net.xml"/>
        <osm-files value="map.osm"/>
        <type-file value="typemap.xml"/>
    </input>

    <output>
        <output-file value="csusb.poly.xml"/>
    </output>

    <processing>
        <poi-layer-offset value="5"/>
    </processing>

</configuration>
-->

<additional xmlns:xsi="http://www.w3.org/2001/XMLSchema-instance" xsi:noNamespaceSchemaLocation="http://sumo.dlr.de/xsd/additional_file.xsd">
    <location netOffset="-466665.56,-3776722.15" convBoundary="-5767.59,-16999.81,44713.18,12904.83" origBoundary="-117.424606,33.977994,-116.876811,34.247035" projParameter="+proj=utm +zone=11 +ellps=WGS84 +datum=WGS84 +units=m +no_defs"/>

    <poly id="143676269" type="tourism" color="207,245,201" fill="1" layer="-2.00" shape="1908.758333,5597.977191 1933.913500,5580.672937 2041.608685,5751.085028 2025.453670,5753.578270 1975.823001,5696.173157 1947.031660,5659.367321 1921.687509,5620.077354 1908.758333,5597.977191"/>
    <poly id="143677298" type="tourism" color="207,245,201" fill="1" layer="-2.00" shape="3479.390369,4400.021626 3371.858190,4462.347252 3365.925835,4460.392445 3291.686622,4327.292700 3281.374749,4304.661194 3265.408257,4257.465047 3253.794219,4182.201636 3309.600490,4161.842580 3346.670891,4159.262676 3412.274541,4159.086934 3414.318734,4178.762134 3375.976190,4201.493241 3390.887087,4227.037506 3384.838773,4237.912203 3479.390369,4400.021626"/>
    <poly id="143678257" type="tourism" color="207,245,201" fill="1" layer="-2.00" shape="6758.615534,3793.665865 6847.602893,3789.478469 6845.061169,3767.342413 6811.929950,3765.462093 6758.771894,3754.413051 6758.615534,3793.665865"/>
    <poly id="143736295" type="tourism" color="207,245,201" fill="1" layer="-2.00" shape="6172.593476,5737.139185 6165.843649,5726.059329 6156.479210,5706.282741 6158.824996,5698.503073 6173.519435,5690.854032 6194.382901,5684.617584 6208.340476,5680.263945 6221.612981,5674.814563 6319.541086,5623.105116 6336.847404,5652.040135 6172.593476,5737.139185"/>
    <poly id="164327774" type="landuse" color="194,194,130" fill="1" layer="-3.00" shape="6464.515378,5526.731567 6471.269302,5552.215287 6479.647277,5559.121514 6490.510642,5561.851458 6503.728877,5559.873263 6529.043350,5550.242934 6599.945582,5511.376167 6545.707338,5438.070819 6564.610028,5425.819861 6566.623530,5301.226336 6582.043620,5240.607227 6588.603404,5197.909821 6581.730637,5179.212388 6531.192186,5179.223312 6523.685740,5183.957234 6518.895719,5213.765072 6510.820879,5410.039381 6503.899562,5471.177687 6495.312359,5487.834614 6477.455997,5524.332776 6464.515378,5526.731567"/>
    <poly id="164327781" type="man_made" color="255,230,230" fill="1" layer="-1.00" shape="6560.499237,5134.409720 6664.507615,5134.535379 6664.051026,5071.056366 6559.904120,5071.075247 6560.499237,5134.409720"/>
    <poly id="164423268" type="landuse" color="194,194,130" fill="1" layer="-3.00" shape="5789.935913,3714.289463 5749.827085,3649.618385 5749.970687,3576.025254 5755.250425,3503.148892 5760.125138,3480.725251 5772.165541,3469.036208 5759.963216,3441.218303 5751.247755,3420.630811 5717.135442,3436.709085 5699.553180,3444.489241 5657.613394,3437.915270 5674.652053,3423.949393 5702.542831,3404.806710 5759.358709,3363.935003 5821.839791,3312.236036 5914.431351,3290.842532 5962.103935,3309.764353 6011.826299,3320.441897 6052.258162,3340.926477 6105.578526,3346.438046 6156.354006,3361.238128 6169.866367,3380.259775 6175.668018,3419.916746 6176.865792,3474.012819 6182.106572,3498.214408 6201.781994,3500.208947 6241.635685,3499.583991 6259.778635,3510.353865 6259.839447,3531.476792 6253.703601,3545.266055 6253.183620,3556.743884 6261.267173,3566.367381 6273.944960,3583.817051 6284.759156,3591.070915 6279.642516,3597.095461 6244.276326,3638.733835 6245.963486,3718.874808 5789.935913,3714.289463"/>
    <poly id="164423274" type="landuse" color="194,194,130" fill="1" layer="-3.00" shape="5882.772675,5908.430445 5703.931327,5818.152634 5656.992980,5809.752785 5629.858588,5811.052456 5606.584290,5815.135062 5334.051434,5895.934100 5260.764698,5917.409019 5215.612364,5923.819998 5170.775790,5918.731688 5125.573084,5905.273029 5083.144516,5885.874008 5081.113738,5909.232061 5086.254082,5930.162394 5124.650826,5935.713164 5123.738110,5960.121240 5224.792690,5973.867263 5289.415930,5973.674167 5340.631067,5960.947326 5378.300921,5973.154270 5441.405758,5964.340046 5475.817166,5962.275334 5513.654920,5981.456856 5546.593815,5992.503122 5696.998949,5936.296539 5748.112503,5935.802607 5792.197242,5923.465085 5844.028582,5925.763820 5873.065622,5916.608698 5882.772675,5908.430445"/>
    <poly id="164423312" type="water" color="181,209,209" fill="0" layer="-4.00" shape="6279.642516,3597.095461 6299.604959,3606.030618 6320.577943,3610.605234 6337.273050,3611.588497 6356.290852,3609.349537 6376.198238,3602.329032 6477.370947,3552.452938 6486.030320,3547.538298 6492.612139,3541.332272 6499.189569,3533.584998 6520.316048,3501.457549 6537.578712,3475.129220 6546.844862,3456.685258 6592.641946,3361.362411 6601.518559,3345.237057 6614.929043,3328.710742 6626.800941,3315.670522 6690.671868,3251.732020"/>
    <poly id="164423313" type="water" color="181,209,209" fill="0" layer="-4.00" shape="5226.047562,3746.107022 5291.436196,3709.996936"/>
    <poly id="164423314" type="water" color="181,209,209" fill="0" layer="-4.00" shape="5291.436196,3709.996936 5759.963216,3441.218303"/>
    <poly id="164423316" type="water" color="181,209,209" fill="0" layer="-4.00" shape="3165.996879,5239.142173 4139.174216,4387.715131 4207.656618,4335.565222 4269.162226,4292.152774 4464.617458,4178.250591 4477.856516,4170.536865 5226.047562,3746.107022"/>
    <poly id="164423317" type="water" color="181,209,209" fill="0" layer="-4.00" shape="5571.148558,5801.301711 5568.654628,5786.838866 5570.362751,5772.374693 5576.446427,5757.365358 5623.167178,5688.735132 5629.781418,5675.476218 5632.890317,5660.996843 5634.427595,5647.930313 5634.863333,5498.747277"/>
    <poly id="165392475" type="building" color="255,230,230" fill="1" layer="-1.00" shape="3905.364872,5777.751904 3916.454203,5767.127850 3922.611990,5753.081870 3922.895804,5737.768033 3917.276012,5723.503887 3906.597996,5712.471191 3892.498060,5706.339170 3877.107850,5706.043662 3862.777439,5711.643834 3851.688102,5722.267950 3848.439971,5729.674040 3846.555175,5733.982217 3845.498585,5737.921881 3845.412286,5742.723388 3845.292920,5748.733624 3845.237496,5751.627846 3850.857382,5765.891950 3861.535439,5776.935671 3875.644505,5783.067617 3891.034555,5783.352034 3905.364872,5777.751904"/>
    <poly id="165392499" type="water" color="181,209,209" fill="1" layer="-4.00" shape="3920.928628,6322.183536 3881.102835,6413.121602 3852.689102,6431.894534 3773.208129,6467.893017 3713.103717,6488.695512 3614.166558,6508.323827 3466.052383,6527.798931 3383.232693,6530.313529 3334.047027,6527.576412 3276.760813,6518.733621 3215.878672,6500.577425 2849.209197,6366.504628 2829.104462,6352.720562 2831.238410,6311.808794 2837.293507,6283.768936 2936.416968,6321.458495 3317.929954,6443.567308 3381.709630,6457.213069 3443.180381,6457.660416 3510.428564,6443.597387 3840.775271,6346.906718 3888.905262,6324.213210 3908.262621,6305.801404 3920.928628,6322.183536"/>
    <poly id="179852265" type="building" color="255,230,230" fill="1" layer="-1.00" shape="3945.663419,5586.552143 3945.519567,5570.019935 3951.085468,5569.980355 3956.522322,5569.930093 3956.421039,5558.165722 4012.374730,5557.680504 4012.505928,5573.148274 4012.793085,5606.112897 3993.533739,5606.272802 3993.525561,5591.846947 3991.617988,5591.841815 3945.663419,5586.552143"/>
    <poly id="179852265#1" type="leisure" color="207,245,201" fill="1" layer="-2.00" shape="3945.663419,5586.552143 3945.519567,5570.019935 3951.085468,5569.980355 3956.522322,5569.930093 3956.421039,5558.165722 4012.374730,5557.680504 4012.505928,5573.148274 4012.793085,5606.112897 3993.533739,5606.272802 3993.525561,5591.846947 3991.617988,5591.841815 3945.663419,5586.552143"/>
    <poly id="179852265#2" type="sport" color="79,230,125" fill="1" layer="-2.00" shape="3945.663419,5586.552143 3945.519567,5570.019935 3951.085468,5569.980355 3956.522322,5569.930093 3956.421039,5558.165722 4012.374730,5557.680504 4012.505928,5573.148274 4012.793085,5606.112897 3993.533739,5606.272802 3993.525561,5591.846947 3991.617988,5591.841815 3945.663419,5586.552143"/>
    <poly id="179865372" type="leisure" color="207,245,201" fill="1" layer="-2.00" shape="4094.771643,5487.578585 4095.138309,5566.925313 4208.447738,5566.418225 4208.082029,5487.071499 4094.771643,5487.578585"/>
    <poly id="179865372#1" type="sport" color="79,230,125" fill="1" layer="-2.00" shape="4094.771643,5487.578585 4095.138309,5566.925313 4208.447738,5566.418225 4208.082029,5487.071499 4094.771643,5487.578585"/>
    <poly id="179865375" type="leisure" color="207,245,201" fill="1" layer="-2.00" shape="4157.225589,5787.844156 4084.457994,5836.404290 4152.215079,5937.008491 4224.982199,5888.437784 4157.225589,5787.844156"/>
    <poly id="179865375#1" type="sport" color="79,230,125" fill="1" layer="-2.00" shape="4157.225589,5787.844156 4084.457994,5836.404290 4152.215079,5937.008491 4224.982199,5888.437784 4157.225589,5787.844156"/>
    <poly id="179891894" type="building" color="255,230,230" fill="1" layer="-1.00" shape="3580.069863,5354.770528 3565.531017,5364.507743 3568.660497,5369.132742 3570.536467,5367.873823 3571.610508,5369.467137 3570.589778,5370.157844 3571.256375,5371.131504 3575.765505,5372.004290 3581.117588,5368.428000 3582.923047,5371.094565 3581.047076,5372.353482 3583.991360,5376.701865 3585.959309,5375.387216 3587.857375,5378.197637 3582.385916,5381.907361 3581.589286,5386.433910 3582.181842,5387.308010 3583.165815,5386.650685 3584.202815,5388.188677 3582.409610,5389.391890 3585.566859,5394.061160 3600.243595,5384.223744 3596.984489,5379.399555 3594.979748,5380.736495 3594.016788,5379.298063 3596.058285,5377.927742 3595.308331,5376.821284 3596.678545,5375.907708 3597.456250,5377.047342 3602.366913,5373.760757 3596.469071,5365.041834 3590.756333,5356.577361 3585.873242,5359.841688 3586.706522,5361.069852 3585.455862,5361.905433 3584.687369,5360.765771 3582.553892,5362.191827 3581.674288,5360.886192 3583.412346,5359.727506 3580.069863,5354.770528"/>
    <poly id="179891895" type="building" color="255,230,230" fill="1" layer="-1.00" shape="3707.892408,5373.494050 3697.931383,5359.166105 3693.315223,5362.340828 3694.602002,5364.188517 3693.020383,5365.280158 3692.316831,5364.273342 3691.342098,5364.941714 3690.526913,5369.446135 3694.192884,5374.723693 3691.535376,5376.550556 3690.248598,5374.702868 3685.908350,5377.699312 3687.259916,5379.635501 3684.455279,5381.562625 3680.669120,5376.163479 3676.114381,5375.434935 3675.240810,5376.036460 3675.907361,5376.999039 3674.380933,5378.057244 3673.149689,5376.287002 3668.505970,5379.484001 3678.568878,5393.966830 3683.378120,5390.658430 3682.008020,5388.689035 3683.442503,5387.697651 3684.840424,5389.722400 3685.943889,5388.964914 3686.888123,5390.314708 3685.738651,5391.094516 3689.108362,5395.940562 3697.798096,5389.958738 3706.221155,5384.155176 3702.869985,5379.342330 3701.646998,5380.188897 3700.795303,5378.960781 3701.926347,5378.181034 3700.472890,5376.078839 3701.769426,5375.176599 3702.963628,5376.891520 3707.892408,5373.494050"/>
    <poly id="179891896" type="building" color="255,230,230" fill="1" layer="-1.00" shape="3646.322091,5372.934333 3656.172877,5387.351279 3660.807583,5384.220832 3659.539196,5382.362002 3661.130059,5381.281414 3661.824432,5382.299345 3662.799161,5381.630970 3663.660409,5377.126400 3660.040428,5371.826533 3662.716398,5370.010691 3663.984786,5371.869521 3668.343635,5368.928450 3667.010425,5366.970029 3669.824348,5365.065047 3673.573761,5370.497570 3678.119428,5371.270495 3679.002215,5370.668941 3678.335663,5369.706362 3679.880559,5368.659187 3681.093406,5370.440577 3685.764885,5367.276761 3675.821481,5352.704841 3670.984471,5355.980067 3672.336182,5357.960607 3670.901661,5358.940905 3669.512913,5356.905041 3668.400195,5357.651469 3667.474386,5356.301618 3668.623860,5355.521809 3665.300097,5350.642360 3656.564059,5356.557830 3648.085468,5362.283994 3651.390700,5367.130230 3652.622935,5366.294716 3653.465457,5367.533945 3652.325166,5368.302639 3653.769488,5370.427032 3652.463671,5371.307131 3651.287855,5369.581070 3646.322091,5372.934333"/>
    <poly id="179891897" type="building" color="255,230,230" fill="1" layer="-1.00" shape="3605.950959,5303.593734 3591.411971,5313.319820 3594.541490,5317.955915 3596.417474,5316.697001 3597.491516,5318.290318 3596.470743,5318.969934 3597.128161,5319.954713 3601.646528,5320.827482 3606.998650,5317.251208 3608.804111,5319.917778 3606.928092,5321.165601 3609.872415,5325.525080 3611.840378,5324.210436 3613.738446,5327.020863 3608.266913,5330.719483 3607.470265,5335.246029 3608.062857,5336.131219 3609.046837,5335.473897 3610.083838,5337.011892 3608.290585,5338.204011 3611.447839,5342.873289 3626.124716,5333.047003 3622.856391,5328.222835 3620.860851,5329.559740 3619.888674,5328.121335 3621.939402,5326.750990 3621.189447,5325.644531 3622.559636,5324.719870 3623.337377,5325.870595 3628.248075,5322.584024 3622.350191,5313.853997 3616.637481,5305.400596 3611.754354,5308.664910 3612.587636,5309.893076 3611.336966,5310.728654 3610.568473,5309.588989 3608.434980,5311.015039 3607.555375,5309.709402 3609.293411,5308.539633 3605.950959,5303.593734"/>
    <poly id="179891898" type="building" color="255,230,230" fill="1" layer="-1.00" shape="3658.434561,5403.178233 3643.904891,5412.904210 3647.034351,5417.540323 3648.910321,5416.281419 3649.984343,5417.874743 3648.963578,5418.554353 3649.620983,5419.539136 3654.139297,5420.411930 3659.491382,5416.835684 3661.287594,5419.502294 3659.420838,5420.761166 3662.365071,5425.109573 3664.333020,5423.794940 3666.231053,5426.605377 3660.759558,5430.303968 3659.962893,5434.830511 3660.555474,5435.715704 3661.530233,5435.058416 3662.576429,5436.596387 3660.783224,5437.799586 3663.931168,5442.457822 3678.617158,5432.631587 3675.348894,5427.807401 3673.353368,5429.144295 3672.381210,5427.705883 3674.431923,5426.335550 3673.681982,5425.229087 3675.052161,5424.304434 3675.829888,5425.455163 3680.740551,5422.168618 3674.842777,5413.438558 3669.120959,5404.985154 3664.237867,5408.249441 3665.071133,5409.477612 3663.829687,5410.313154 3663.061208,5409.173485 3660.927730,5410.599523 3660.038926,5409.293910 3661.786200,5408.135210 3658.434561,5403.178233"/>
    <poly id="179891901" type="building" color="255,230,230" fill="1" layer="-1.00" shape="3579.370205,5416.124323 3593.825695,5406.276508 3590.659449,5401.673794 3588.792734,5402.943768 3587.709519,5401.361569 3588.721032,5400.670893 3588.054438,5399.697232 3583.526998,5398.857764 3578.211933,5402.478289 3576.378868,5399.822900 3578.245618,5398.564011 3575.264511,5394.226835 3573.305853,5395.563634 3571.380175,5392.764391 3576.823871,5389.021484 3577.583603,5384.483962 3576.981831,5383.609892 3576.007108,5384.278276 3574.951711,5382.751432 3576.735666,5381.537158 3573.541617,5376.890185 3558.948187,5386.838262 3562.253352,5391.651203 3564.239584,5390.292138 3565.220943,5391.719421 3563.188739,5393.111896 3563.947876,5394.207233 3562.586953,5395.142962 3561.799995,5393.992271 3556.917144,5397.323143 3562.888585,5405.997455 3568.674901,5414.417326 3573.530172,5411.108724 3572.687678,5409.880591 3573.919865,5409.033978 3574.706786,5410.173581 3576.821751,5408.725405 3577.719746,5410.019893 3575.981768,5411.200756 3579.370205,5416.124323"/>
    <poly id="179891905" type="building" color="255,230,230" fill="1" layer="-1.00" shape="3657.762815,5464.775875 3672.218311,5454.928181 3669.052119,5450.325440 3667.185403,5451.595399 3666.102207,5450.013191 3667.113720,5449.322523 3666.447138,5448.348857 3661.919729,5447.509351 3656.604662,5451.129831 3654.771628,5448.474427 3656.638343,5447.204466 3653.657323,5442.878353 3651.698665,5444.215136 3649.773020,5441.415877 3655.216684,5437.661926 3655.976484,5433.135500 3655.374722,5432.261424 3654.399999,5432.929800 3653.353801,5431.391830 3655.128541,5430.177600 3651.934582,5425.541688 3637.341146,5435.489644 3640.646219,5440.291525 3642.632487,5438.943565 3643.613829,5440.370856 3641.581590,5441.752226 3642.340748,5442.858658 3640.979790,5443.783287 3640.192880,5442.643678 3635.310028,5445.974509 3641.281366,5454.648871 3647.067546,5463.057702 3651.922818,5459.749140 3651.080375,5458.532088 3652.321778,5457.685456 3653.099434,5458.814007 3655.214435,5457.376936 3656.112415,5458.671432 3654.383652,5459.852251 3657.762815,5464.775875"/>
    <poly id="179891907" type="building" color="255,230,230" fill="1" layer="-1.00" shape="3588.419924,5340.473452 3602.875541,5330.625653 3599.709275,5326.022936 3597.842543,5327.292909 3596.750106,5325.710738 3597.770843,5325.020034 3597.104245,5324.046372 3592.576769,5323.206899 3587.252442,5326.827447 3585.428581,5324.172028 3587.295347,5322.913141 3584.314220,5318.575963 3582.355546,5319.912759 3580.429855,5317.113515 3585.873599,5313.370613 3586.633342,5308.833093 3586.031566,5307.959022 3585.056835,5308.627405 3584.001431,5307.100560 3585.785401,5305.886289 3582.591331,5301.239313 3567.997773,5311.187374 3571.302959,5316.000318 3573.289210,5314.641255 3574.270575,5316.068538 3572.238353,5317.461011 3572.997495,5318.556349 3571.627345,5319.492105 3570.849597,5318.341385 3565.966703,5321.672252 3571.928968,5330.346598 3577.724536,5338.766445 3582.570634,5335.457877 3581.728135,5334.229743 3582.969548,5333.383102 3583.747259,5334.522735 3585.871457,5333.074532 3586.760243,5334.369050 3585.031466,5335.549882 3588.419924,5340.473452"/>
    <poly id="181000912" type="building" color="255,230,230" fill="1" layer="-1.00" shape="3622.865024,5278.480690 3620.503931,5274.962074 3617.974970,5276.644403 3615.900922,5273.557325 3617.850536,5272.264918 3615.970924,5269.465521 3613.619112,5265.969055 3610.860253,5267.807349 3605.119579,5259.265337 3608.099120,5257.271107 3605.904737,5254.018088 3602.879153,5256.023552 3597.166251,5247.525811 3600.090642,5245.576106 3597.812858,5242.179204 3594.833279,5244.162349 3589.175901,5235.742055 3592.422170,5233.580652 3591.200002,5231.777126 3588.024096,5227.052473 3585.771031,5228.556524 3578.817354,5218.210975 3588.537746,5211.726816 3590.597710,5210.356436 3589.051451,5208.066052 3597.355683,5202.539978 3598.846367,5204.741834 3603.343368,5201.755943 3605.982688,5199.995644 3604.445647,5197.705227 3613.016588,5192.000911 3614.525841,5194.247064 3617.606601,5192.197076 3626.241923,5186.448215 3632.936344,5196.417616 3630.812002,5197.832543 3634.506420,5203.331753 3635.700831,5205.102107 3638.625243,5203.152414 3644.041870,5211.218672 3641.255378,5213.068133 3643.699803,5216.708461 3646.605852,5214.781006 3652.050183,5222.869358 3649.033829,5224.885866 3651.506000,5228.559374 3654.375254,5226.654214 3659.847393,5234.797924 3657.235649,5236.535945 3659.578201,5240.021363 3660.976289,5242.090461 3662.723595,5240.931761 3665.269830,5244.715922 3662.897201,5246.297950 3665.341609,5249.938284 3656.954615,5255.520001 3654.639817,5252.067761 3652.230400,5253.672085 3649.239681,5249.212945 3645.850837,5244.167384 3643.689712,5245.604602 3638.032379,5237.184279 3641.131526,5235.123152 3638.992653,5231.936479 3635.985451,5233.930786 3630.309568,5225.477261 3633.408717,5223.416132 3630.899500,5219.687304 3627.837143,5221.726142 3622.337147,5213.527097 3625.344353,5211.532785 3623.288830,5208.478912 3615.306465,5213.793267 3613.352766,5210.883222 3609.885802,5213.200552 3606.326825,5215.562528 3608.354601,5218.583220 3600.353857,5223.908735 3602.409384,5226.962603 3605.342998,5225.012871 3610.815216,5233.167641 3608.010375,5235.039346 3610.464093,5238.701813 3613.287364,5236.830051 3618.750318,5244.973766 3615.816708,5246.923494 3618.390712,5250.740819 3621.287529,5248.813385 3626.870761,5257.111961 3624.820018,5258.482304 3627.903320,5263.074203 3630.829185,5267.422658 3628.383019,5269.060369 3631.049657,5273.032641 3622.865024,5278.480690"/>
    <poly id="358564856" type="building" color="255,230,230" fill="1" layer="-1.00" shape="2726.419001,3910.776864 2736.591951,3910.000840 2734.300598,3879.970123 2724.127580,3880.735061 2726.419001,3910.776864"/>
    <poly id="358564857" type="building" color="255,230,230" fill="1" layer="-1.00" shape="2704.386042,3801.861823 2704.428897,3792.381198 2725.665218,3792.467285 2725.622342,3801.947910 2704.386042,3801.861823"/>
    <poly id="358564858" type="building" color="255,230,230" fill="1" layer="-1.00" shape="2774.317119,3802.332858 2793.737033,3802.225413 2793.457101,3750.089202 2774.037079,3750.196647 2774.317119,3802.332858"/>
    <poly id="358564859" type="building" color="255,230,230" fill="1" layer="-1.00" shape="2712.135497,3821.041498 2723.761867,3816.523975 2737.824055,3852.437527 2726.197687,3856.943944 2712.135497,3821.041498"/>
    <poly id="358564860" type="building" color="255,230,230" fill="1" layer="-1.00" shape="2751.438062,3951.788657 2783.980374,4002.090234 2794.180585,3995.548273 2794.426185,3983.195121 2767.469671,3941.513126 2751.438062,3951.788657"/>
    <poly id="358564861" type="building" color="255,230,230" fill="1" layer="-1.00" shape="2749.342187,3857.156931 2749.751257,3844.071421 2755.797028,3843.896523 2756.048830,3827.795511 2771.842091,3803.671496 2788.357139,3814.451091 2759.020405,3857.280693 2749.342187,3857.156931"/>
    <poly id="358564862" type="building" color="255,230,230" fill="1" layer="-1.00" shape="2719.501949,3765.054927 2738.129246,3764.938860 2737.961079,3738.748875 2717.812963,3738.880981 2717.849412,3744.413917 2715.250259,3744.433468 2715.343857,3759.025349 2719.463805,3759.000846 2719.501949,3765.054927"/>
    <poly id="402206810" type="building" color="255,230,230" fill="1" layer="-1.00" shape="2924.711086,6072.707650 2952.195404,6085.902551 2957.466463,6074.564332 2929.741747,6061.126251 2924.711086,6072.707650"/>
    <poly id="402206901" type="building" color="255,230,230" fill="1" layer="-1.00" shape="3111.296358,6019.569190 3113.708148,6021.657125 3146.263512,6001.371738 3144.757812,5994.490730 3146.605243,5993.010048 3153.920332,5998.275678 3180.930021,5981.334722 3178.930303,5975.564126 3159.412459,5978.210361 3158.909306,5976.482199 3148.912730,5979.840802 3144.570440,5973.456793 3146.538059,5972.097697 3131.886695,5949.258490 3111.167655,5962.364969 3125.450066,5985.083359 3127.429248,5984.456050 3131.769977,5990.352171 3125.607038,5996.647970 3121.180529,6001.330384 3116.871341,6008.108115 3114.168036,6012.796079 3112.825343,6016.492808 3111.296358,6019.569190"/>
    <poly id="402206955" type="building" color="255,230,230" fill="1" layer="-1.00" shape="2909.346436,6188.275538 2939.340929,6202.737429 2954.123507,6172.085847 2924.304879,6157.889460 2909.346436,6188.275538"/>
    <poly id="402206956" type="building" color="255,230,230" fill="1" layer="-1.00" shape="2919.082378,6218.359905 2932.233676,6224.670952 2937.598138,6213.753773 2924.077529,6207.222148 2919.082378,6218.359905"/>
    <poly id="402206959" type="building" color="255,230,230" fill="1" layer="-1.00" shape="2939.473995,6235.325584 2953.586470,6239.682006 2956.261233,6231.911530 2941.918133,6227.478232 2939.473995,6235.325584"/>
    <poly id="402207471" type="building" color="255,230,230" fill="1" layer="-1.00" shape="3032.940199,6256.002797 3041.180524,6259.624283 3052.348397,6236.679807 3044.162665,6232.847456 3038.496156,6244.430847 3034.362004,6242.570252 3031.569525,6248.145596 3036.044612,6250.005091 3032.940199,6256.002797"/>
    <poly id="402207472" type="building" color="255,230,230" fill="1" layer="-1.00" shape="3100.323013,6249.143821 3101.521338,6246.412237 3100.551922,6245.827675 3103.116826,6241.106885 3113.785336,6246.206458 3112.299918,6251.356218 3110.417730,6250.608266 3109.395548,6253.671931 3100.323013,6249.143821"/>
    <poly id="402207473" type="building" color="255,230,230" fill="1" layer="-1.00" shape="3109.506213,5921.398980 3130.653716,5909.688249 3126.195849,5901.763344 3127.437574,5901.049700 3125.295038,5896.732144 3121.135337,5898.430942 3115.244744,5886.274912 3106.753893,5890.804078 3105.789803,5889.021960 3102.563870,5883.077912 3101.804682,5881.971523 3101.085279,5881.774248 3100.532386,5881.776027 3099.915845,5882.044130 3099.585893,5882.599608 3099.486492,5883.209785 3099.692144,5884.118365 3091.736047,5888.734531 3109.506213,5921.398980"/>
    <poly id="402207474" type="building" color="255,230,230" fill="1" layer="-1.00" shape="3080.775106,5881.662203 3083.851974,5887.096661 3087.853593,5884.954822 3088.807829,5886.537380 3106.994291,5876.732231 3101.774060,5866.725186 3083.219274,5876.620238 3084.822230,5879.342804 3080.775106,5881.662203"/>
    <poly id="402207920" type="amenity" color="237,199,199" fill="1" layer="-1.00" shape="3136.072061,5817.915020 3120.920510,5794.356700 3123.540075,5792.263675 3122.103591,5789.729069 3126.113548,5787.298925 3127.651967,5790.010617 3131.956057,5787.346675 3147.153523,5810.860512 3136.072061,5817.915020"/>
    <poly id="402207920#1" type="building" color="255,230,230" fill="1" layer="-1.00" shape="3136.072061,5817.915020 3120.920510,5794.356700 3123.540075,5792.263675 3122.103591,5789.729069 3126.113548,5787.298925 3127.651967,5790.010617 3131.956057,5787.346675 3147.153523,5810.860512 3136.072061,5817.915020"/>
    <poly id="402207921" type="building" color="255,230,230" fill="1" layer="-1.00" shape="3179.150226,5831.603812 3195.252283,5821.173492 3189.380203,5811.900319 3173.020295,5822.386919 3179.150226,5831.603812"/>
    <poly id="402207922" type="building" color="255,230,230" fill="1" layer="-1.00" shape="3174.601704,5818.401138 3170.638203,5812.337463 3183.761966,5804.200877 3187.468653,5810.642384 3174.601704,5818.401138"/>
    <poly id="402207923" type="building" color="255,230,230" fill="1" layer="-1.00" shape="3199.480281,5814.895034 3225.625939,5798.444875 3185.623670,5735.347563 3155.983998,5754.237393 3158.974403,5758.574409 3162.331043,5756.434675 3199.480281,5814.895034"/>
    <poly id="402207924" type="building" color="255,230,230" fill="1" layer="-1.00" shape="3209.244793,5739.086191 3229.469198,5726.713352 3221.890724,5714.074780 3237.929450,5703.933036 3221.906181,5678.636484 3227.579666,5674.803927 3215.397968,5654.917265 3186.537814,5672.728928 3198.705997,5691.262823 3184.525567,5700.411812 3209.244793,5739.086191"/>
    <poly id="402207925" type="building" color="255,230,230" fill="1" layer="-1.00" shape="3254.097528,5800.405032 3227.070824,5757.590898 3277.466444,5725.351087 3305.009578,5768.330036 3254.097528,5800.405032"/>
    <poly id="402208817" type="building" color="255,230,230" fill="1" layer="-1.00" shape="3281.168513,5906.123109 3284.550552,5911.933658 3282.076544,5913.438493 3283.503255,5915.817918 3215.681149,5958.902488 3214.254711,5956.611779 3211.688578,5958.116928 3208.576868,5953.281309 3203.269237,5956.203466 3198.991086,5949.697255 3201.556650,5948.014692 3191.492588,5933.221891 3177.932613,5911.621005 3183.672008,5908.276093 3179.186433,5900.317987 3195.077355,5890.176638 3208.174196,5911.036115 3211.356599,5909.174164 3225.872272,5932.845550 3268.847397,5905.896403 3265.910782,5901.060206 3274.132765,5895.999805 3276.000659,5898.022992 3281.168513,5906.123109"/>
    <poly id="402208818" type="building" color="255,230,230" fill="1" layer="-1.00" shape="3224.015181,5908.313058 3257.435422,5887.415437 3239.668321,5858.443114 3234.609571,5861.408808 3231.258432,5856.629391 3202.649238,5874.928098 3220.663235,5903.278616 3224.015181,5908.313058"/>
    <poly id="402208819" type="building" color="255,230,230" fill="1" layer="-1.00" shape="3479.253777,6054.252490 3468.473719,6037.255096 3478.598277,6030.658638 3489.657477,6048.508957 3479.253777,6054.252490"/>
    <poly id="402208820" type="building" color="255,230,230" fill="1" layer="-1.00" shape="3468.449525,5945.565903 3467.394066,5944.005806 3447.134342,5956.810695 3444.449174,5952.772001 3448.687751,5949.786852 3441.546339,5938.244456 3436.598218,5941.231867 3433.571563,5937.027938 3434.517691,5936.082421 3435.344380,5935.248167 3435.765616,5934.415203 3437.446348,5935.551952 3438.905897,5933.784266 3440.043209,5932.106312 3441.494469,5927.732900 3441.809687,5925.436616 3442.319757,5923.561069 3428.189102,5922.253257 3426.853084,5928.089962 3414.179897,5935.936479 3400.338744,5944.507474 3401.737211,5946.709594 3399.391742,5948.069840 3402.966921,5953.791110 3389.810068,5963.102859 3392.440003,5967.152801 3388.467515,5969.771214 3390.579442,5973.201862 3383.921363,5977.436641 3389.570440,5986.222759 3396.266080,5982.209630 3397.730459,5984.855072 3401.408741,5982.448278 3402.853841,5984.827662 3436.275716,5964.407469 3441.633308,5971.376061 3443.518355,5970.117085 3446.674530,5974.486930 3475.182769,5956.266904 3473.498063,5953.877182 3468.449525,5945.565903"/>
    <poly id="402208821" type="building" color="255,230,230" fill="1" layer="-1.00" shape="3514.760256,5953.202821 3523.221745,5965.517265 3541.521435,5953.550379 3533.334435,5940.614102 3514.760256,5953.202821"/>
    <poly id="402208822" type="building" color="255,230,230" fill="1" layer="-1.00" shape="3542.143296,5952.051485 3554.254603,5944.251275 3546.503205,5932.100877 3533.949858,5939.991205 3542.143296,5952.051485"/>